data_image0
_chemical_formula_structural       Nd16H240C160O96
_chemical_formula_sum              "Nd16 H240 C160 O96"
_cell_length_a       34.1054
_cell_length_b       36.7791
_cell_length_c       42.6074
_cell_angle_alpha    90.155
_cell_angle_beta     90.263
_cell_angle_gamma    92.855

_space_group_name_H-M_alt    "P 1"
_space_group_IT_number       1

loop_
  _space_group_symop_operation_xyz
  'x, y, z'

loop_
  _atom_site_type_symbol
  _atom_site_label
  _atom_site_symmetry_multiplicity
  _atom_site_fract_x
  _atom_site_fract_y
  _atom_site_fract_z
  _atom_site_occupancy
  Nd  Nd1       1.0  0.69604  0.94027  0.14098  1.0000
  Nd  Nd2       1.0  0.65069  0.02063  0.15613  1.0000
  Nd  Nd3       1.0  0.43877  0.63496  0.64894  1.0000
  Nd  Nd4       1.0  0.52174  0.68257  0.63232  1.0000
  Nd  Nd5       1.0  0.79754  0.52846  0.14198  1.0000
  Nd  Nd6       1.0  0.84488  0.45579  0.15941  1.0000
  Nd  Nd7       1.0  0.04062  0.84261  0.65648  1.0000
  Nd  Nd8       1.0  0.94701  0.80851  0.66546  1.0000
  Nd  Nd9       1.0  0.34650  0.05106  0.88646  1.0000
  Nd  Nd10      1.0  0.37889  0.96688  0.87457  1.0000
  Nd  Nd11      1.0  0.44870  0.37289  0.36890  1.0000
  Nd  Nd12      1.0  0.45404  0.30985  0.32343  1.0000
  Nd  Nd13      1.0  0.15956  0.43422  0.89243  1.0000
  Nd  Nd14      1.0  0.11890  0.51607  0.88183  1.0000
  Nd  Nd15      1.0  0.03119  0.10253  0.38320  1.0000
  Nd  Nd16      1.0  0.03049  0.15860  0.31941  1.0000
  H   H1        1.0  0.60421  0.93206  0.19101  1.0000
  H   H2        1.0  0.73333  0.03313  0.10210  1.0000
  H   H3        1.0  0.52385  0.60369  0.69423  1.0000
  H   H4        1.0  0.42856  0.69963  0.57923  1.0000
  H   H5        1.0  0.88384  0.53941  0.20530  1.0000
  H   H6        1.0  0.77879  0.44096  0.08945  1.0000
  H   H7        1.0  0.97496  0.89110  0.71845  1.0000
  H   H8        1.0  0.00980  0.74994  0.61596  1.0000
  H   H9        1.0  0.30958  0.97473  0.94500  1.0000
  H   H10       1.0  0.42895  0.03590  0.82423  1.0000
  H   H11       1.0  0.40623  0.38109  0.27510  1.0000
  H   H12       1.0  0.47969  0.28521  0.41040  1.0000
  H   H13       1.0  0.19849  0.51344  0.94588  1.0000
  H   H14       1.0  0.06771  0.44275  0.83693  1.0000
  H   H15       1.0  0.07274  0.06372  0.30737  1.0000
  H   H16       1.0  0.99809  0.20262  0.39109  1.0000
  H   H17       1.0  0.46704  0.06512  0.94639  1.0000
  H   H18       1.0  0.63170  0.98466  0.04354  1.0000
  H   H19       1.0  0.56885  0.01074  0.06839  1.0000
  H   H20       1.0  0.57970  0.01357  0.01239  1.0000
  H   H21       1.0  0.50750  0.01930  0.03163  1.0000
  H   H22       1.0  0.52506  0.04153  0.98033  1.0000
  H   H23       1.0  0.45025  0.02378  0.98839  1.0000
  H   H24       1.0  0.49072  0.03051  0.92424  1.0000
  H   H25       1.0  0.60984  0.94010  0.05050  1.0000
  H   H26       1.0  0.54782  0.96476  0.06631  1.0000
  H   H27       1.0  0.56720  0.96584  0.00714  1.0000
  H   H28       1.0  0.49864  0.97312  0.01786  1.0000
  H   H29       1.0  0.52875  0.99651  0.96437  1.0000
  H   H30       1.0  0.45890  0.98390  0.96522  1.0000
  H   H31       1.0  0.53025  0.55424  0.58636  1.0000
  H   H32       1.0  0.48631  0.47457  0.42152  1.0000
  H   H33       1.0  0.46212  0.44127  0.47323  1.0000
  H   H34       1.0  0.50562  0.49444  0.47682  1.0000
  H   H35       1.0  0.46078  0.48338  0.52595  1.0000
  H   H36       1.0  0.51969  0.52132  0.53190  1.0000
  H   H37       1.0  0.46468  0.53380  0.57264  1.0000
  H   H38       1.0  0.53333  0.58803  0.55613  1.0000
  H   H39       1.0  0.43691  0.48825  0.41721  1.0000
  H   H40       1.0  0.41901  0.46752  0.46906  1.0000
  H   H41       1.0  0.46919  0.52438  0.46319  1.0000
  H   H42       1.0  0.43283  0.52034  0.51150  1.0000
  H   H43       1.0  0.50079  0.55783  0.50932  1.0000
  H   H44       1.0  0.45594  0.57409  0.55004  1.0000
  H   H45       1.0  0.93788  0.52016  0.09471  1.0000
  H   H46       1.0  0.04527  0.41864  0.96170  1.0000
  H   H47       1.0  0.99551  0.46116  0.95120  1.0000
  H   H48       1.0  0.00762  0.44232  0.01059  1.0000
  H   H49       1.0  0.94323  0.46080  0.00018  1.0000
  H   H50       1.0  0.97331  0.47491  0.05712  1.0000
  H   H51       1.0  0.90433  0.46715  0.05673  1.0000
  H   H52       1.0  0.90801  0.54915  0.07171  1.0000
  H   H53       1.0  0.07519  0.45104  0.98309  1.0000
  H   H54       1.0  0.02734  0.50041  0.96048  1.0000
  H   H55       1.0  0.02801  0.48798  0.01523  1.0000
  H   H56       1.0  0.95929  0.50716  0.99164  1.0000
  H   H57       1.0  0.97391  0.52159  0.04491  1.0000
  H   H58       1.0  0.89735  0.50556  0.03169  1.0000
  H   H59       1.0  0.02041  0.06361  0.48787  1.0000
  H   H60       1.0  0.92776  0.89976  0.58356  1.0000
  H   H61       1.0  0.97378  0.89172  0.54232  1.0000
  H   H62       1.0  0.95126  0.95888  0.54959  1.0000
  H   H63       1.0  0.97453  0.94600  0.49834  1.0000
  H   H64       1.0  0.98386  0.01369  0.51828  1.0000
  H   H65       1.0  0.98359  0.00580  0.46216  1.0000
  H   H66       1.0  0.06484  0.04294  0.47576  1.0000
  H   H67       1.0  0.96061  0.93046  0.60486  1.0000
  H   H68       1.0  0.01576  0.90626  0.56568  1.0000
  H   H69       1.0  0.99958  0.96877  0.56536  1.0000
  H   H70       1.0  0.02435  0.94103  0.51146  1.0000
  H   H71       1.0  0.03505  0.00493  0.52189  1.0000
  H   H72       1.0  0.03125  0.98649  0.46208  1.0000
  H   H73       1.0  0.71670  0.82846  0.09735  1.0000
  H   H74       1.0  0.74252  0.63093  0.09600  1.0000
  H   H75       1.0  0.79051  0.66848  0.12968  1.0000
  H   H76       1.0  0.73427  0.69641  0.10144  1.0000
  H   H77       1.0  0.77984  0.73863  0.13315  1.0000
  H   H78       1.0  0.72448  0.76185  0.10182  1.0000
  H   H79       1.0  0.76473  0.80816  0.13547  1.0000
  H   H80       1.0  0.67652  0.81747  0.12365  1.0000
  H   H81       1.0  0.71148  0.62300  0.12897  1.0000
  H   H82       1.0  0.75914  0.66024  0.16337  1.0000
  H   H83       1.0  0.70397  0.68906  0.13551  1.0000
  H   H84       1.0  0.74783  0.73204  0.16667  1.0000
  H   H85       1.0  0.69175  0.75468  0.13444  1.0000
  H   H86       1.0  0.72766  0.80230  0.16558  1.0000
  H   H87       1.0  0.62075  0.76834  0.59905  1.0000
  H   H88       1.0  0.83487  0.82659  0.60312  1.0000
  H   H89       1.0  0.80457  0.79639  0.65130  1.0000
  H   H90       1.0  0.76305  0.80508  0.60365  1.0000
  H   H91       1.0  0.73205  0.77300  0.65055  1.0000
  H   H92       1.0  0.69203  0.78570  0.60297  1.0000
  H   H93       1.0  0.65799  0.75133  0.64725  1.0000
  H   H94       1.0  0.63403  0.72782  0.57972  1.0000
  H   H95       1.0  0.84820  0.78239  0.58930  1.0000
  H   H96       1.0  0.81775  0.75256  0.63661  1.0000
  H   H97       1.0  0.77659  0.76169  0.58845  1.0000
  H   H98       1.0  0.74458  0.72981  0.63396  1.0000
  H   H99       1.0  0.70487  0.74311  0.58580  1.0000
  H   H100      1.0  0.67021  0.70888  0.62898  1.0000
  H   H101      1.0  0.20040  0.32767  0.94035  1.0000
  H   H102      1.0  0.30980  0.15866  0.93511  1.0000
  H   H103      1.0  0.25542  0.16462  0.89471  1.0000
  H   H104      1.0  0.27375  0.21452  0.93278  1.0000
  H   H105      1.0  0.22181  0.22797  0.89170  1.0000
  H   H106      1.0  0.23713  0.27118  0.93488  1.0000
  H   H107      1.0  0.19279  0.29409  0.89051  1.0000
  H   H108      1.0  0.24678  0.34768  0.92920  1.0000
  H   H109      1.0  0.34485  0.17460  0.90597  1.0000
  H   H110      1.0  0.29156  0.18289  0.86726  1.0000
  H   H111      1.0  0.31078  0.23265  0.90645  1.0000
  H   H112      1.0  0.26024  0.24895  0.86772  1.0000
  H   H113      1.0  0.27852  0.29106  0.91408  1.0000
  H   H114      1.0  0.23606  0.31755  0.87444  1.0000
  H   H115      1.0  0.31950  0.31943  0.39098  1.0000
  H   H116      1.0  0.13259  0.20557  0.39985  1.0000
  H   H117      1.0  0.15700  0.21975  0.34482  1.0000
  H   H118      1.0  0.19365  0.24472  0.39115  1.0000
  H   H119      1.0  0.22725  0.25554  0.33860  1.0000
  H   H120      1.0  0.25636  0.28333  0.38720  1.0000
  H   H121      1.0  0.29767  0.29276  0.33853  1.0000
  H   H122      1.0  0.34415  0.27876  0.39942  1.0000
  H   H123      1.0  0.15827  0.16441  0.39971  1.0000
  H   H124      1.0  0.18422  0.17883  0.34586  1.0000
  H   H125      1.0  0.21917  0.20345  0.39535  1.0000
  H   H126      1.0  0.25386  0.21487  0.34477  1.0000
  H   H127      1.0  0.28113  0.24249  0.39567  1.0000
  H   H128      1.0  0.32261  0.25177  0.34749  1.0000
  H   H129      1.0  0.56433  0.24320  0.31932  1.0000
  H   H130      1.0  0.68212  0.10681  0.23535  1.0000
  H   H131      1.0  0.60816  0.10681  0.22656  1.0000
  H   H132      1.0  0.64093  0.15195  0.26300  1.0000
  H   H133      1.0  0.56821  0.15447  0.25262  1.0000
  H   H134      1.0  0.60152  0.19746  0.29074  1.0000
  H   H135      1.0  0.52924  0.20282  0.28048  1.0000
  H   H136      1.0  0.57747  0.27575  0.28893  1.0000
  H   H137      1.0  0.68835  0.13556  0.20082  1.0000
  H   H138      1.0  0.61650  0.13763  0.19407  1.0000
  H   H139      1.0  0.65048  0.18284  0.23072  1.0000
  H   H140      1.0  0.57850  0.18636  0.22111  1.0000
  H   H141      1.0  0.61255  0.22930  0.25947  1.0000
  H   H142      1.0  0.54076  0.23528  0.24958  1.0000
  H   H143      1.0  0.36383  0.65685  0.73967  1.0000
  H   H144      1.0  0.25999  0.51767  0.84857  1.0000
  H   H145      1.0  0.21787  0.55414  0.80875  1.0000
  H   H146      1.0  0.28566  0.57090  0.81623  1.0000
  H   H147      1.0  0.25822  0.58780  0.76125  1.0000
  H   H148      1.0  0.31769  0.61916  0.77793  1.0000
  H   H149      1.0  0.31169  0.61634  0.71807  1.0000
  H   H150      1.0  0.39315  0.61899  0.74985  1.0000
  H   H151      1.0  0.25680  0.48101  0.82082  1.0000
  H   H152      1.0  0.22737  0.51822  0.78121  1.0000
  H   H153      1.0  0.30186  0.53013  0.79801  1.0000
  H   H154      1.0  0.28316  0.54915  0.74635  1.0000
  H   H155      1.0  0.34561  0.57895  0.77617  1.0000
  H   H156      1.0  0.34219  0.57755  0.71874  1.0000
  H   H157      1.0  0.81099  0.33394  0.18601  1.0000
  H   H158      1.0  0.92423  0.18298  0.25277  1.0000
  H   H159      1.0  0.95994  0.24374  0.24611  1.0000
  H   H160      1.0  0.88829  0.23456  0.23068  1.0000
  H   H161      1.0  0.92287  0.29425  0.21980  1.0000
  H   H162      1.0  0.85053  0.28480  0.20792  1.0000
  H   H163      1.0  0.88488  0.34347  0.19397  1.0000
  H   H164      1.0  0.80383  0.35660  0.22350  1.0000
  H   H165      1.0  0.90744  0.19634  0.29056  1.0000
  H   H166      1.0  0.94481  0.25733  0.28491  1.0000
  H   H167      1.0  0.87472  0.25019  0.26915  1.0000
  H   H168      1.0  0.91101  0.31027  0.25863  1.0000
  H   H169      1.0  0.83948  0.30222  0.24640  1.0000
  H   H170      1.0  0.87558  0.36156  0.23251  1.0000
  H   H171      1.0  0.23582  0.00826  0.82615  1.0000
  H   H172      1.0  0.09280  0.87895  0.75074  1.0000
  H   H173      1.0  0.14404  0.91447  0.71735  1.0000
  H   H174      1.0  0.14270  0.91849  0.77495  1.0000
  H   H175      1.0  0.20287  0.94726  0.74566  1.0000
  H   H176      1.0  0.18908  0.96147  0.80029  1.0000
  H   H177      1.0  0.25929  0.97930  0.77945  1.0000
  H   H178      1.0  0.23801  0.96730  0.84878  1.0000
  H   H179      1.0  0.12135  0.83935  0.74688  1.0000
  H   H180      1.0  0.17367  0.87497  0.71905  1.0000
  H   H181      1.0  0.16972  0.87784  0.77873  1.0000
  H   H182      1.0  0.22875  0.90735  0.75670  1.0000
  H   H183      1.0  0.20915  0.91990  0.81381  1.0000
  H   H184      1.0  0.27524  0.94010  0.80061  1.0000
  H   H185      1.0  0.37209  0.91336  0.77593  1.0000
  H   H186      1.0  0.45665  0.77844  0.67453  1.0000
  H   H187      1.0  0.47511  0.77266  0.72940  1.0000
  H   H188      1.0  0.42535  0.81899  0.71141  1.0000
  H   H189      1.0  0.45247  0.82491  0.76536  1.0000
  H   H190      1.0  0.39846  0.86419  0.74523  1.0000
  H   H191      1.0  0.42754  0.87767  0.79806  1.0000
  H   H192      1.0  0.33693  0.88330  0.79542  1.0000
  H   H193      1.0  0.41048  0.75353  0.68053  1.0000
  H   H194      1.0  0.43364  0.74124  0.73714  1.0000
  H   H195      1.0  0.38684  0.78760  0.72478  1.0000
  H   H196      1.0  0.41493  0.79256  0.77965  1.0000
  H   H197      1.0  0.36262  0.83270  0.76249  1.0000
  H   H198      1.0  0.39153  0.84637  0.81578  1.0000
  H   H199      1.0  0.58900  0.36472  0.32880  1.0000
  H   H200      1.0  0.75442  0.45943  0.24631  1.0000
  H   H201      1.0  0.70591  0.42130  0.21342  1.0000
  H   H202      1.0  0.69666  0.43051  0.27096  1.0000
  H   H203      1.0  0.64206  0.39477  0.24099  1.0000
  H   H204      1.0  0.64217  0.39845  0.29874  1.0000
  H   H205      1.0  0.57907  0.37084  0.27269  1.0000
  H   H206      1.0  0.57743  0.41108  0.33647  1.0000
  H   H207      1.0  0.72857  0.49949  0.23607  1.0000
  H   H208      1.0  0.67955  0.46176  0.20527  1.0000
  H   H209      1.0  0.67125  0.47135  0.26362  1.0000
  H   H210      1.0  0.61631  0.43650  0.23805  1.0000
  H   H211      1.0  0.62026  0.44192  0.29784  1.0000
  H   H212      1.0  0.55817  0.41481  0.27731  1.0000
  H   H213      1.0  0.14439  0.58772  0.79062  1.0000
  H   H214      1.0  0.05613  0.76868  0.74729  1.0000
  H   H215      1.0  0.04986  0.71052  0.70969  1.0000
  H   H216      1.0  0.09131  0.70981  0.75459  1.0000
  H   H217      1.0  0.05888  0.64530  0.73908  1.0000
  H   H218      1.0  0.11911  0.64732  0.76752  1.0000
  H   H219      1.0  0.07497  0.58853  0.77814  1.0000
  H   H220      1.0  0.14035  0.61833  0.82275  1.0000
  H   H221      1.0  0.00535  0.75725  0.75618  1.0000
  H   H222      1.0  0.00577  0.69930  0.73169  1.0000
  H   H223      1.0  0.05153  0.71199  0.78192  1.0000
  H   H224      1.0  0.02952  0.65025  0.77388  1.0000
  H   H225      1.0  0.09800  0.66576  0.80235  1.0000
  H   H226      1.0  0.06333  0.60924  0.81528  1.0000
  H   H227      1.0  0.75637  0.96566  0.24155  1.0000
  H   H228      1.0  0.91004  0.05291  0.34201  1.0000
  H   H229      1.0  0.92572  0.05255  0.28311  1.0000
  H   H230      1.0  0.86319  0.02583  0.30477  1.0000
  H   H231      1.0  0.86762  0.02811  0.24539  1.0000
  H   H232      1.0  0.81047  0.99729  0.27211  1.0000
  H   H233      1.0  0.80672  0.00245  0.21248  1.0000
  H   H234      1.0  0.72993  0.00595  0.25041  1.0000
  H   H235      1.0  0.89435  0.09836  0.33755  1.0000
  H   H236      1.0  0.90485  0.09676  0.28027  1.0000
  H   H237      1.0  0.84195  0.06962  0.30436  1.0000
  H   H238      1.0  0.84371  0.07096  0.24619  1.0000
  H   H239      1.0  0.78654  0.03967  0.27508  1.0000
  H   H240      1.0  0.77959  0.04307  0.21743  1.0000
  C   C1        1.0  0.66676  0.08157  0.19158  1.0000
  C   C2        1.0  0.72478  0.98751  0.20323  1.0000
  C   C3        1.0  0.61524  0.95791  0.18192  1.0000
  C   C4        1.0  0.70966  0.86606  0.13472  1.0000
  C   C5        1.0  0.62863  0.97073  0.09118  1.0000
  C   C6        1.0  0.72637  0.00745  0.11341  1.0000
  C   C7        1.0  0.59073  0.72000  0.61463  1.0000
  C   C8        1.0  0.50203  0.60283  0.59682  1.0000
  C   C9        1.0  0.52478  0.62652  0.67839  1.0000
  C   C10       1.0  0.39317  0.63135  0.70181  1.0000
  C   C11       1.0  0.45974  0.72098  0.67849  1.0000
  C   C12       1.0  0.42949  0.68054  0.59834  1.0000
  C   C13       1.0  0.82788  0.38994  0.18664  1.0000
  C   C14       1.0  0.76193  0.47738  0.19921  1.0000
  C   C15       1.0  0.87423  0.51471  0.19326  1.0000
  C   C16       1.0  0.76312  0.59361  0.12913  1.0000
  C   C17       1.0  0.87746  0.50991  0.10122  1.0000
  C   C18       1.0  0.78248  0.46516  0.10371  1.0000
  C   C19       1.0  0.88073  0.80222  0.62870  1.0000
  C   C20       1.0  0.97179  0.87559  0.61184  1.0000
  C   C21       1.0  0.96552  0.86775  0.70448  1.0000
  C   C22       1.0  0.09272  0.85677  0.70539  1.0000
  C   C23       1.0  0.01637  0.77521  0.70951  1.0000
  C   C24       1.0  0.01939  0.77618  0.62529  1.0000
  C   C25       1.0  0.37141  0.91918  0.82506  1.0000
  C   C26       1.0  0.29255  0.99451  0.84272  1.0000
  C   C27       1.0  0.32954  0.97065  0.92591  1.0000
  C   C28       1.0  0.32105  0.12081  0.89877  1.0000
  C   C29       1.0  0.42907  0.02672  0.92135  1.0000
  C   C30       1.0  0.40512  0.04153  0.83976  1.0000
  C   C31       1.0  0.51727  0.27288  0.30220  1.0000
  C   C32       1.0  0.52840  0.37437  0.32747  1.0000
  C   C33       1.0  0.42001  0.36021  0.28827  1.0000
  C   C34       1.0  0.44567  0.43146  0.41063  1.0000
  C   C35       1.0  0.37312  0.31300  0.36626  1.0000
  C   C36       1.0  0.47057  0.30972  0.39929  1.0000
  C   C37       1.0  0.12096  0.56469  0.83275  1.0000
  C   C38       1.0  0.20389  0.49266  0.84472  1.0000
  C   C39       1.0  0.17534  0.51610  0.92883  1.0000
  C   C40       1.0  0.19777  0.37149  0.90846  1.0000
  C   C41       1.0  0.08089  0.45561  0.93423  1.0000
  C   C42       1.0  0.09412  0.43896  0.85026  1.0000
  C   C43       1.0  0.96771  0.18616  0.28851  1.0000
  C   C44       1.0  0.95566  0.09363  0.33491  1.0000
  C   C45       1.0  0.06320  0.09115  0.30922  1.0000
  C   C46       1.0  0.02932  0.06196  0.43865  1.0000
  C   C47       1.0  0.10624  0.16392  0.37148  1.0000
  C   C48       1.0  0.00426  0.17415  0.39038  1.0000
  C   C49       1.0  0.46565  0.03584  0.93990  1.0000
  C   C50       1.0  0.61096  0.96874  0.05888  1.0000
  C   C51       1.0  0.56993  0.98427  0.05581  1.0000
  C   C52       1.0  0.56034  0.99045  0.02090  1.0000
  C   C53       1.0  0.51713  0.99857  0.01466  1.0000
  C   C54       1.0  0.51214  0.01317  0.98108  1.0000
  C   C55       1.0  0.46910  0.01265  0.96983  1.0000
  C   C56       1.0  0.51333  0.57455  0.57357  1.0000
  C   C57       1.0  0.45521  0.46696  0.42726  1.0000
  C   C58       1.0  0.45067  0.46656  0.46323  1.0000
  C   C59       1.0  0.47381  0.49981  0.47768  1.0000
  C   C60       1.0  0.46227  0.50866  0.51169  1.0000
  C   C61       1.0  0.49275  0.53603  0.52653  1.0000
  C   C62       1.0  0.47842  0.55451  0.55661  1.0000
  C   C63       1.0  0.91094  0.52082  0.07995  1.0000
  C   C64       1.0  0.05540  0.44777  0.96236  1.0000
  C   C65       1.0  0.01975  0.47160  0.96680  1.0000
  C   C66       1.0  0.00654  0.47057  0.00144  1.0000
  C   C67       1.0  0.96465  0.48332  0.00677  1.0000
  C   C68       1.0  0.95885  0.49434  0.04137  1.0000
  C   C69       1.0  0.91535  0.49543  0.05131  1.0000
  C   C70       1.0  0.03313  0.04497  0.47048  1.0000
  C   C71       1.0  0.95892  0.90518  0.59046  1.0000
  C   C72       1.0  0.98442  0.91126  0.56077  1.0000
  C   C73       1.0  0.98221  0.95072  0.54888  1.0000
  C   C74       1.0  0.99752  0.95645  0.51509  1.0000
  C   C75       1.0  0.00757  0.99714  0.50881  1.0000
  C   C76       1.0  0.01293  0.00670  0.47371  1.0000
  C   C77       1.0  0.70771  0.82774  0.12237  1.0000
  C   C78       1.0  0.74262  0.62777  0.12191  1.0000
  C   C79       1.0  0.75969  0.66308  0.13740  1.0000
  C   C80       1.0  0.73465  0.69496  0.12753  1.0000
  C   C81       1.0  0.74906  0.73245  0.14062  1.0000
  C   C82       1.0  0.72271  0.76198  0.12790  1.0000
  C   C83       1.0  0.73322  0.80093  0.13992  1.0000
  C   C84       1.0  0.62749  0.73950  0.60308  1.0000
  C   C85       1.0  0.84305  0.79903  0.61051  1.0000
  C   C86       1.0  0.80952  0.78031  0.62965  1.0000
  C   C87       1.0  0.77130  0.77725  0.61032  1.0000
  C   C88       1.0  0.73704  0.75812  0.62830  1.0000
  C   C89       1.0  0.69931  0.75722  0.60836  1.0000
  C   C90       1.0  0.66378  0.73776  0.62451  1.0000
  C   C91       1.0  0.21749  0.33827  0.91993  1.0000
  C   C92       1.0  0.31631  0.15933  0.90959  1.0000
  C   C93       1.0  0.28416  0.18001  0.89254  1.0000
  C   C94       1.0  0.28139  0.21817  0.90758  1.0000
  C   C95       1.0  0.25112  0.24258  0.89217  1.0000
  C   C96       1.0  0.24846  0.27829  0.91111  1.0000
  C   C97       1.0  0.22215  0.30687  0.89631  1.0000
  C   C98       1.0  0.33543  0.29699  0.38015  1.0000
  C   C99       1.0  0.14280  0.18358  0.38447  1.0000
  C   C100      1.0  0.17220  0.20073  0.36043  1.0000
  C   C101      1.0  0.20621  0.22194  0.37795  1.0000
  C   C102      1.0  0.23969  0.23765  0.35668  1.0000
  C   C103      1.0  0.27081  0.25996  0.37635  1.0000
  C   C104      1.0  0.30724  0.27489  0.35781  1.0000
  C   C105      1.0  0.55488  0.25486  0.29665  1.0000
  C   C106      1.0  0.66935  0.11423  0.21235  1.0000
  C   C107      1.0  0.62834  0.12879  0.21705  1.0000
  C   C108      1.0  0.62984  0.16105  0.23987  1.0000
  C   C109      1.0  0.58914  0.17636  0.24408  1.0000
  C   C110      1.0  0.59106  0.20773  0.26779  1.0000
  C   C111      1.0  0.55099  0.22423  0.27231  1.0000
  C   C112      1.0  0.37211  0.62926  0.73239  1.0000
  C   C113      1.0  0.24157  0.50507  0.82945  1.0000
  C   C114      1.0  0.23839  0.53269  0.80268  1.0000
  C   C115      1.0  0.27927  0.55095  0.79695  1.0000
  C   C116      1.0  0.28331  0.57017  0.76517  1.0000
  C   C117      1.0  0.32187  0.59370  0.76446  1.0000
  C   C118      1.0  0.33547  0.60319  0.73109  1.0000
  C   C119      1.0  0.82356  0.35431  0.20301  1.0000
  C   C120      1.0  0.93189  0.20022  0.27357  1.0000
  C   C121      1.0  0.93647  0.24033  0.26406  1.0000
  C   C122      1.0  0.89756  0.25265  0.25061  1.0000
  C   C123      1.0  0.90094  0.29203  0.23903  1.0000
  C   C124      1.0  0.86108  0.30372  0.22692  1.0000
  C   C125      1.0  0.86395  0.34252  0.21397  1.0000
  C   C126      1.0  0.25287  0.98368  0.82997  1.0000
  C   C127      1.0  0.11380  0.86519  0.73539  1.0000
  C   C128      1.0  0.15082  0.89007  0.73136  1.0000
  C   C129      1.0  0.16567  0.90225  0.76389  1.0000
  C   C130      1.0  0.20455  0.92504  0.76318  1.0000
  C   C131      1.0  0.21211  0.94170  0.79577  1.0000
  C   C132      1.0  0.25279  0.96098  0.79966  1.0000
  C   C133      1.0  0.36738  0.89544  0.79666  1.0000
  C   C134      1.0  0.44189  0.75569  0.68780  1.0000
  C   C135      1.0  0.44419  0.76500  0.72287  1.0000
  C   C136      1.0  0.41795  0.79715  0.72878  1.0000
  C   C137      1.0  0.42187  0.81379  0.76173  1.0000
  C   C138      1.0  0.39316  0.84454  0.76477  1.0000
  C   C139      1.0  0.39716  0.86541  0.79590  1.0000
  C   C140      1.0  0.57018  0.38696  0.32136  1.0000
  C   C141      1.0  0.73669  0.47221  0.22779  1.0000
  C   C142      1.0  0.69866  0.44849  0.22257  1.0000
  C   C143      1.0  0.67696  0.44390  0.25413  1.0000
  C   C144      1.0  0.63756  0.42150  0.25227  1.0000
  C   C145      1.0  0.62133  0.41520  0.28562  1.0000
  C   C146      1.0  0.57996  0.39625  0.28694  1.0000
  C   C147      1.0  0.12475  0.59547  0.80997  1.0000
  C   C148      1.0  0.02851  0.75510  0.73813  1.0000
  C   C149      1.0  0.03476  0.71452  0.73245  1.0000
  C   C150      1.0  0.06039  0.70017  0.75909  1.0000
  C   C151      1.0  0.05785  0.65854  0.76252  1.0000
  C   C152      1.0  0.09245  0.64636  0.78252  1.0000
  C   C153      1.0  0.08581  0.60809  0.79651  1.0000
  C   C154      1.0  0.74848  0.99275  0.23275  1.0000
  C   C155      1.0  0.91478  0.07839  0.32826  1.0000
  C   C156      1.0  0.90423  0.07078  0.29357  1.0000
  C   C157      1.0  0.86269  0.05214  0.29198  1.0000
  C   C158      1.0  0.84681  0.04469  0.25855  1.0000
  C   C159      1.0  0.80649  0.02383  0.26034  1.0000
  C   C160      1.0  0.78651  0.01663  0.22825  1.0000
  O   O1        1.0  0.65391  0.08270  0.16238  1.0000
  O   O2        1.0  0.67378  0.04843  0.20153  1.0000
  O   O3        1.0  0.73027  0.95707  0.18637  1.0000
  O   O4        1.0  0.69786  0.01269  0.19730  1.0000
  O   O5        1.0  0.64553  0.96337  0.16442  1.0000
  O   O6        1.0  0.60078  0.98974  0.18654  1.0000
  O   O7        1.0  0.73246  0.89230  0.12281  1.0000
  O   O8        1.0  0.68050  0.87907  0.15029  1.0000
  O   O9        1.0  0.62458  0.00162  0.10750  1.0000
  O   O10       1.0  0.65148  0.94336  0.09919  1.0000
  O   O11       1.0  0.70814  0.00239  0.13912  1.0000
  O   O12       1.0  0.73409  0.97552  0.10367  1.0000
  O   O13       1.0  0.58765  0.70042  0.64035  1.0000
  O   O14       1.0  0.55773  0.72004  0.59863  1.0000
  O   O15       1.0  0.46946  0.59628  0.61390  1.0000
  O   O16       1.0  0.52661  0.63240  0.59933  1.0000
  O   O17       1.0  0.49651  0.64695  0.67228  1.0000
  O   O18       1.0  0.55491  0.63971  0.66330  1.0000
  O   O19       1.0  0.40680  0.60248  0.68799  1.0000
  O   O20       1.0  0.40418  0.66253  0.68813  1.0000
  O   O21       1.0  0.49624  0.72404  0.66667  1.0000
  O   O22       1.0  0.43450  0.69141  0.67611  1.0000
  O   O23       1.0  0.46002  0.67456  0.61531  1.0000
  O   O24       1.0  0.39989  0.65982  0.60889  1.0000
  O   O25       1.0  0.84631  0.39367  0.15962  1.0000
  O   O26       1.0  0.81611  0.42085  0.19867  1.0000
  O   O27       1.0  0.75555  0.50642  0.18109  1.0000
  O   O28       1.0  0.79267  0.45562  0.19656  1.0000
  O   O29       1.0  0.84596  0.51186  0.17285  1.0000
  O   O30       1.0  0.88930  0.48262  0.19647  1.0000
  O   O31       1.0  0.75099  0.56194  0.11733  1.0000
  O   O32       1.0  0.79373  0.59132  0.14774  1.0000
  O   O33       1.0  0.88056  0.47848  0.11660  1.0000
  O   O34       1.0  0.85020  0.53432  0.10678  1.0000
  O   O35       1.0  0.78968  0.46602  0.13321  1.0000
  O   O36       1.0  0.77685  0.49804  0.09503  1.0000
  O   O37       1.0  0.89443  0.77493  0.64467  1.0000
  O   O38       1.0  0.90346  0.83258  0.63032  1.0000
  O   O39       1.0  0.01034  0.87529  0.61791  1.0000
  O   O40       1.0  0.94330  0.85477  0.62627  1.0000
  O   O41       1.0  0.98672  0.85111  0.68447  1.0000
  O   O42       1.0  0.93035  0.85144  0.70432  1.0000
  O   O43       1.0  0.08224  0.88175  0.68539  1.0000
  O   O44       1.0  0.07558  0.82437  0.69972  1.0000
  O   O45       1.0  0.97863  0.77222  0.70107  1.0000
  O   O46       1.0  0.04344  0.79912  0.69750  1.0000
  O   O47       1.0  0.99717  0.80209  0.63236  1.0000
  O   O48       1.0  0.05540  0.78841  0.62941  1.0000
  O   O49       1.0  0.40556  0.92990  0.83746  1.0000
  O   O50       1.0  0.34106  0.93432  0.83824  1.0000
  O   O51       1.0  0.29711  0.02900  0.85325  1.0000
  O   O52       1.0  0.31767  0.96759  0.84738  1.0000
  O   O53       1.0  0.34285  0.99536  0.90676  1.0000
  O   O54       1.0  0.34417  0.93977  0.91747  1.0000
  O   O55       1.0  0.34114  0.11235  0.87379  1.0000
  O   O56       1.0  0.31479  0.09266  0.91734  1.0000
  O   O57       1.0  0.42757  0.99435  0.90665  1.0000
  O   O58       1.0  0.40275  0.05263  0.91836  1.0000
  O   O59       1.0  0.37747  0.01902  0.84823  1.0000
  O   O60       1.0  0.39846  0.07223  0.85286  1.0000
  O   O61       1.0  0.48613  0.25647  0.31524  1.0000
  O   O62       1.0  0.51496  0.30865  0.30027  1.0000
  O   O63       1.0  0.51052  0.39044  0.35119  1.0000
  O   O64       1.0  0.51353  0.34444  0.31240  1.0000
  O   O65       1.0  0.43053  0.36486  0.31783  1.0000
  O   O66       1.0  0.42682  0.32760  0.27688  1.0000
  O   O67       1.0  0.46250  0.40098  0.41726  1.0000
  O   O68       1.0  0.42946  0.43044  0.38258  1.0000
  O   O69       1.0  0.39300  0.29330  0.34592  1.0000
  O   O70       1.0  0.38711  0.34468  0.37841  1.0000
  O   O71       1.0  0.48006  0.31899  0.37103  1.0000
  O   O72       1.0  0.45849  0.33804  0.41411  1.0000
  O   O73       1.0  0.08820  0.55404  0.84714  1.0000
  O   O74       1.0  0.15223  0.54892  0.84365  1.0000
  O   O75       1.0  0.20296  0.45841  0.85574  1.0000
  O   O76       1.0  0.17728  0.51800  0.85071  1.0000
  O   O77       1.0  0.16024  0.49043  0.91125  1.0000
  O   O78       1.0  0.15793  0.54598  0.92153  1.0000
  O   O79       1.0  0.17347  0.37299  0.88447  1.0000
  O   O80       1.0  0.20122  0.40243  0.92386  1.0000
  O   O81       1.0  0.07691  0.48702  0.91863  1.0000
  O   O82       1.0  0.10872  0.43155  0.92910  1.0000
  O   O83       1.0  0.12121  0.46311  0.85637  1.0000
  O   O84       1.0  0.10454  0.40942  0.86325  1.0000
  O   O85       1.0  0.99727  0.20689  0.29975  1.0000
  O   O86       1.0  0.97112  0.15100  0.29381  1.0000
  O   O87       1.0  0.97148  0.08244  0.36197  1.0000
  O   O88       1.0  0.97119  0.12014  0.31591  1.0000
  O   O89       1.0  0.05256  0.10716  0.33434  1.0000
  O   O90       1.0  0.05875  0.11427  0.28641  1.0000
  O   O91       1.0  0.01121  0.09213  0.43446  1.0000
  O   O92       1.0  0.04947  0.05320  0.41377  1.0000
  O   O93       1.0  0.08936  0.17749  0.34562  1.0000
  O   O94       1.0  0.09107  0.13629  0.38921  1.0000
  O   O95       1.0  0.00245  0.15345  0.36619  1.0000
  O   O96       1.0  0.01561  0.15452  0.41346  1.0000
