data_image0
_chemical_formula_structural       Br40C80Cd8O40
_chemical_formula_sum              "Br40 C80 Cd8 O40"
_cell_length_a       14.5896
_cell_length_b       24.7263
_cell_length_c       24.8436
_cell_angle_alpha    76.571
_cell_angle_beta     84.249
_cell_angle_gamma    89.853

_space_group_name_H-M_alt    "P 1"
_space_group_IT_number       1

loop_
  _space_group_symop_operation_xyz
  'x, y, z'

loop_
  _atom_site_type_symbol
  _atom_site_label
  _atom_site_symmetry_multiplicity
  _atom_site_fract_x
  _atom_site_fract_y
  _atom_site_fract_z
  _atom_site_occupancy
  Br  Br1       1.0  0.33932  0.28668  0.47336  1.0000
  Br  Br2       1.0  0.56258  0.29340  0.48206  1.0000
  Br  Br3       1.0  0.30505  0.09740  0.66400  1.0000
  Br  Br4       1.0  0.53146  0.09285  0.66014  1.0000
  Br  Br5       1.0  0.55570  0.61022  0.79250  1.0000
  Br  Br6       1.0  0.32926  0.60910  0.79776  1.0000
  Br  Br7       1.0  0.55628  0.37730  0.78320  1.0000
  Br  Br8       1.0  0.33446  0.38256  0.76798  1.0000
  Br  Br9       1.0  0.34490  0.71854  0.39224  1.0000
  Br  Br10      1.0  0.57048  0.71506  0.39718  1.0000
  Br  Br11      1.0  0.34316  0.94174  0.43054  1.0000
  Br  Br12      1.0  0.56966  0.93856  0.43220  1.0000
  Br  Br13      1.0  0.34054  0.41808  0.19198  1.0000
  Br  Br14      1.0  0.56632  0.42002  0.18942  1.0000
  Br  Br15      1.0  0.33536  0.65014  0.20540  1.0000
  Br  Br16      1.0  0.55696  0.64524  0.22188  1.0000
  Br  Br17      1.0  0.99981  0.02427  0.36056  1.0000
  Br  Br18      1.0  0.97981  0.13462  0.41538  1.0000
  Br  Br19      1.0  0.87052  0.88260  0.57432  1.0000
  Br  Br20      1.0  0.87416  0.99100  0.63274  1.0000
  Br  Br21      1.0  0.99626  0.62170  0.89346  1.0000
  Br  Br22      1.0  0.02054  0.62392  0.02454  1.0000
  Br  Br23      1.0  0.86598  0.39208  0.96584  1.0000
  Br  Br24      1.0  0.88440  0.39638  0.09746  1.0000
  Br  Br25      1.0  0.85064  0.29266  0.84368  1.0000
  Br  Br26      1.0  0.83437  0.19100  0.77592  1.0000
  Br  Br27      1.0  0.04708  0.43132  0.64432  1.0000
  Br  Br28      1.0  0.04016  0.32946  0.58184  1.0000
  Br  Br29      1.0  0.06300  0.78220  0.59366  1.0000
  Br  Br30      1.0  0.06474  0.68044  0.70712  1.0000
  Br  Br31      1.0  0.83984  0.64280  0.49657  1.0000
  Br  Br32      1.0  0.84298  0.54129  0.61010  1.0000
  Br  Br33      1.0  0.04870  0.58894  0.32022  1.0000
  Br  Br34      1.0  0.07452  0.69116  0.38196  1.0000
  Br  Br35      1.0  0.86514  0.73500  0.14894  1.0000
  Br  Br36      1.0  0.88198  0.83850  0.21476  1.0000
  Br  Br37      1.0  0.81062  0.46894  0.38858  1.0000
  Br  Br38      1.0  0.81456  0.36644  0.50026  1.0000
  Br  Br39      1.0  0.08371  0.35682  0.26864  1.0000
  Br  Br40      1.0  0.10450  0.26232  0.38422  1.0000
  C   C1        1.0  0.63606  0.19259  0.57068  1.0000
  C   C2        1.0  0.92564  0.22666  0.65248  1.0000
  C   C3        1.0  0.23304  0.19222  0.56820  1.0000
  C   C4        1.0  0.94686  0.27054  0.48026  1.0000
  C   C5        1.0  0.93642  0.10160  0.54496  1.0000
  C   C6        1.0  0.64440  0.49320  0.78878  1.0000
  C   C7        1.0  0.95134  0.57508  0.70038  1.0000
  C   C8        1.0  0.24350  0.49634  0.78170  1.0000
  C   C9        1.0  0.94792  0.40085  0.76526  1.0000
  C   C10       1.0  0.93380  0.50416  0.88248  1.0000
  C   C11       1.0  0.65612  0.82516  0.41674  1.0000
  C   C12       1.0  0.97054  0.79660  0.32744  1.0000
  C   C13       1.0  0.25550  0.83054  0.41222  1.0000
  C   C14       1.0  0.94704  0.75040  0.50438  1.0000
  C   C15       1.0  0.94574  0.91466  0.44862  1.0000
  C   C16       1.0  0.24890  0.53460  0.19596  1.0000
  C   C17       1.0  0.94957  0.62474  0.21380  1.0000
  C   C18       1.0  0.64942  0.53194  0.20846  1.0000
  C   C19       1.0  0.94324  0.44994  0.28662  1.0000
  C   C20       1.0  0.95572  0.51246  0.10684  1.0000
  C   C21       1.0  0.33626  0.19214  0.56894  1.0000
  C   C22       1.0  0.37908  0.15174  0.60828  1.0000
  C   C23       1.0  0.47626  0.15168  0.60874  1.0000
  C   C24       1.0  0.53274  0.19282  0.57078  1.0000
  C   C25       1.0  0.48980  0.23374  0.53202  1.0000
  C   C26       1.0  0.39292  0.23293  0.53058  1.0000
  C   C27       1.0  0.54164  0.49388  0.78760  1.0000
  C   C28       1.0  0.49272  0.44606  0.78286  1.0000
  C   C29       1.0  0.39628  0.44722  0.77984  1.0000
  C   C30       1.0  0.34618  0.49567  0.78326  1.0000
  C   C31       1.0  0.39490  0.54320  0.78888  1.0000
  C   C32       1.0  0.49174  0.54258  0.79018  1.0000
  C   C33       1.0  0.35844  0.82978  0.41214  1.0000
  C   C34       1.0  0.40796  0.87652  0.41897  1.0000
  C   C35       1.0  0.50486  0.87513  0.42002  1.0000
  C   C36       1.0  0.55388  0.82694  0.41474  1.0000
  C   C37       1.0  0.50468  0.78032  0.40774  1.0000
  C   C38       1.0  0.40796  0.78178  0.40616  1.0000
  C   C39       1.0  0.35170  0.53422  0.19852  1.0000
  C   C40       1.0  0.39973  0.58184  0.20478  1.0000
  C   C41       1.0  0.49602  0.58084  0.20886  1.0000
  C   C42       1.0  0.54690  0.53270  0.20554  1.0000
  C   C43       1.0  0.49922  0.48536  0.19856  1.0000
  C   C44       1.0  0.40262  0.48580  0.19594  1.0000
  C   C45       1.0  0.93856  0.96258  0.47266  1.0000
  C   C46       1.0  0.90858  0.95528  0.52956  1.0000
  C   C47       1.0  0.90792  0.00100  0.55384  1.0000
  C   C48       1.0  0.93456  0.05372  0.52048  1.0000
  C   C49       1.0  0.95884  0.06124  0.46282  1.0000
  C   C50       1.0  0.96301  0.01526  0.43910  1.0000
  C   C51       1.0  0.93285  0.50716  0.94010  1.0000
  C   C52       1.0  0.90802  0.45968  0.98284  1.0000
  C   C53       1.0  0.91774  0.46090  0.03798  1.0000
  C   C54       1.0  0.95350  0.50912  0.04968  1.0000
  C   C55       1.0  0.97744  0.55670  0.00714  1.0000
  C   C56       1.0  0.96686  0.55580  0.95212  1.0000
  C   C57       1.0  0.95086  0.35304  0.74030  1.0000
  C   C58       1.0  0.99202  0.36040  0.68524  1.0000
  C   C59       1.0  0.98698  0.31746  0.65788  1.0000
  C   C60       1.0  0.93962  0.26750  0.68486  1.0000
  C   C61       1.0  0.89936  0.25966  0.73996  1.0000
  C   C62       1.0  0.90524  0.30260  0.76796  1.0000
  C   C63       1.0  0.94832  0.70564  0.55454  1.0000
  C   C64       1.0  0.90164  0.65488  0.55824  1.0000
  C   C65       1.0  0.90360  0.61180  0.60602  1.0000
  C   C66       1.0  0.95238  0.61946  0.64996  1.0000
  C   C67       1.0  0.00034  0.66972  0.64596  1.0000
  C   C68       1.0  0.99866  0.71284  0.59814  1.0000
  C   C69       1.0  0.96270  0.67166  0.23810  1.0000
  C   C70       1.0  0.92730  0.72396  0.21542  1.0000
  C   C71       1.0  0.93506  0.76730  0.24264  1.0000
  C   C72       1.0  0.97990  0.75796  0.29140  1.0000
  C   C73       1.0  0.01792  0.70584  0.31288  1.0000
  C   C74       1.0  0.00806  0.66250  0.28658  1.0000
  C   C75       1.0  0.94528  0.40452  0.33638  1.0000
  C   C76       1.0  0.00798  0.36100  0.33606  1.0000
  C   C77       1.0  0.01286  0.31878  0.38432  1.0000
  C   C78       1.0  0.95102  0.31808  0.43190  1.0000
  C   C79       1.0  0.89028  0.36252  0.43274  1.0000
  C   C80       1.0  0.88810  0.40596  0.38522  1.0000
  Cd  Cd1       1.0  0.80892  0.19254  0.56892  1.0000
  Cd  Cd2       1.0  0.06024  0.19322  0.56686  1.0000
  Cd  Cd3       1.0  0.81700  0.49380  0.78818  1.0000
  Cd  Cd4       1.0  0.07126  0.49766  0.78124  1.0000
  Cd  Cd5       1.0  0.82678  0.82250  0.42060  1.0000
  Cd  Cd6       1.0  0.08312  0.83044  0.41292  1.0000
  Cd  Cd7       1.0  0.07602  0.53170  0.19586  1.0000
  Cd  Cd8       1.0  0.82201  0.52810  0.20836  1.0000
  O   O1        1.0  0.86496  0.24862  0.50056  1.0000
  O   O2        1.0  0.02360  0.25408  0.50222  1.0000
  O   O3        1.0  0.01408  0.13040  0.53714  1.0000
  O   O4        1.0  0.85852  0.11616  0.56846  1.0000
  O   O5        1.0  0.69302  0.20400  0.52520  1.0000
  O   O6        1.0  0.67946  0.18090  0.61562  1.0000
  O   O7        1.0  0.85508  0.23398  0.62282  1.0000
  O   O8        1.0  0.99569  0.19562  0.64286  1.0000
  O   O9        1.0  0.18100  0.14728  0.57712  1.0000
  O   O10       1.0  0.18480  0.23748  0.55854  1.0000
  O   O11       1.0  0.86632  0.42024  0.77704  1.0000
  O   O12       1.0  0.02614  0.42750  0.76390  1.0000
  O   O13       1.0  0.01412  0.51210  0.85282  1.0000
  O   O14       1.0  0.85676  0.49182  0.86435  1.0000
  O   O15       1.0  0.69990  0.46804  0.75836  1.0000
  O   O16       1.0  0.68894  0.51830  0.81952  1.0000
  O   O17       1.0  0.87056  0.55830  0.72734  1.0000
  O   O18       1.0  0.03026  0.55348  0.71480  1.0000
  O   O19       1.0  0.18846  0.45424  0.80610  1.0000
  O   O20       1.0  0.19862  0.53918  0.75654  1.0000
  O   O21       1.0  0.86664  0.76748  0.48790  1.0000
  O   O22       1.0  0.02710  0.77040  0.47834  1.0000
  O   O23       1.0  0.02856  0.89606  0.43868  1.0000
  O   O24       1.0  0.86862  0.89124  0.44186  1.0000
  O   O25       1.0  0.69754  0.78508  0.44904  1.0000
  O   O26       1.0  0.71358  0.86356  0.38646  1.0000
  O   O27       1.0  0.88932  0.79620  0.35550  1.0000
  O   O28       1.0  0.04694  0.81456  0.34174  1.0000
  O   O29       1.0  0.20130  0.78850  0.43790  1.0000
  O   O30       1.0  0.20974  0.87298  0.38690  1.0000
  O   O31       1.0  0.02246  0.47316  0.26280  1.0000
  O   O32       1.0  0.86308  0.46554  0.26898  1.0000
  O   O33       1.0  0.87568  0.51560  0.13488  1.0000
  O   O34       1.0  0.03608  0.51782  0.12482  1.0000
  O   O35       1.0  0.20566  0.50790  0.16596  1.0000
  O   O36       1.0  0.19186  0.56052  0.22484  1.0000
  O   O37       1.0  0.02292  0.60876  0.18692  1.0000
  O   O38       1.0  0.87524  0.59336  0.23260  1.0000
  O   O39       1.0  0.70576  0.57314  0.18312  1.0000
  O   O40       1.0  0.69302  0.48918  0.23498  1.0000
