data_image0
_chemical_formula_structural       C72N36O90Zn12
_chemical_formula_sum              "C72 N36 O90 Zn12"
_cell_length_a       12.9645
_cell_length_b       25.886
_cell_length_c       25.8856
_cell_angle_alpha    120
_cell_angle_beta     90
_cell_angle_gamma    90

_space_group_name_H-M_alt    "P 1"
_space_group_IT_number       1

loop_
  _space_group_symop_operation_xyz
  'x, y, z'

loop_
  _atom_site_type_symbol
  _atom_site_label
  _atom_site_symmetry_multiplicity
  _atom_site_fract_x
  _atom_site_fract_y
  _atom_site_fract_z
  _atom_site_occupancy
  C   C1        1.0  0.68414  0.86176  0.27598  1.0000
  C   C2        1.0  0.96648  0.90845  0.20904  1.0000
  C   C3        1.0  0.86410  0.80688  0.33708  1.0000
  C   C4        1.0  0.32677  0.81915  0.22107  1.0000
  C   C5        1.0  0.02729  0.74134  0.19629  1.0000
  C   C6        1.0  0.22697  0.76455  0.07237  1.0000
  C   C7        1.0  0.39374  0.24732  0.40449  1.0000
  C   C8        1.0  0.67928  0.25101  0.35362  1.0000
  C   C9        1.0  0.53961  0.31233  0.53031  1.0000
  C   C10       1.0  0.03246  0.20800  0.41162  1.0000
  C   C11       1.0  0.71016  0.18053  0.47813  1.0000
  C   C12       1.0  0.86380  0.11695  0.29082  1.0000
  C   C13       1.0  0.00520  0.47168  0.16932  1.0000
  C   C14       1.0  0.27771  0.35848  0.14504  1.0000
  C   C15       1.0  0.19894  0.58742  0.21888  1.0000
  C   C16       1.0  0.64368  0.46477  0.20752  1.0000
  C   C17       1.0  0.34239  0.51851  0.30047  1.0000
  C   C18       1.0  0.50459  0.35487  0.26450  1.0000
  C   C19       1.0  0.68117  0.18815  0.80878  1.0000
  C   C20       1.0  0.98875  0.09121  0.77614  1.0000
  C   C21       1.0  0.81515  0.19662  0.66464  1.0000
  C   C22       1.0  0.32733  0.23127  0.88306  1.0000
  C   C23       1.0  0.04949  0.27398  0.81231  1.0000
  C   C24       1.0  0.14844  0.19305  0.96128  1.0000
  C   C25       1.0  0.32732  0.77214  0.57396  1.0000
  C   C26       1.0  0.58778  0.80590  0.65800  1.0000
  C   C27       1.0  0.50778  0.69731  0.45575  1.0000
  C   C28       1.0  0.95524  0.77874  0.55746  1.0000
  C   C29       1.0  0.67116  0.82479  0.50526  1.0000
  C   C30       1.0  0.84317  0.88879  0.68644  1.0000
  C   C31       1.0  0.05851  0.57564  0.78639  1.0000
  C   C32       1.0  0.36556  0.63834  0.87190  1.0000
  C   C33       1.0  0.15362  0.44157  0.78648  1.0000
  C   C34       1.0  0.70795  0.61821  0.75266  1.0000
  C   C35       1.0  0.42954  0.49992  0.70086  1.0000
  C   C36       1.0  0.48942  0.73991  0.79698  1.0000
  C   C37       1.0  0.30216  0.66059  0.92601  1.0000
  C   C38       1.0  0.24233  0.71467  0.01133  1.0000
  C   C39       1.0  0.94238  0.96639  0.21390  1.0000
  C   C40       1.0  0.89661  0.05518  0.24856  1.0000
  C   C41       1.0  0.64808  0.29522  0.33700  1.0000
  C   C42       1.0  0.57002  0.34105  0.30203  1.0000
  C   C43       1.0  0.24701  0.29798  0.09999  1.0000
  C   C44       1.0  0.18674  0.22661  0.02264  1.0000
  C   C45       1.0  0.96991  0.02822  0.75779  1.0000
  C   C46       1.0  0.90421  0.94349  0.72184  1.0000
  C   C47       1.0  0.50209  0.77662  0.76906  1.0000
  C   C48       1.0  0.54742  0.80516  0.71044  1.0000
  C   C49       1.0  0.41959  0.84709  0.25439  1.0000
  C   C50       1.0  0.57272  0.86537  0.27801  1.0000
  C   C51       1.0  0.12880  0.23514  0.40986  1.0000
  C   C52       1.0  0.28284  0.25114  0.40463  1.0000
  C   C53       1.0  0.73874  0.46487  0.17811  1.0000
  C   C54       1.0  0.89398  0.46802  0.16202  1.0000
  C   C55       1.0  0.44021  0.23303  0.87886  1.0000
  C   C56       1.0  0.59145  0.21495  0.84771  1.0000
  C   C57       1.0  0.21758  0.75818  0.56956  1.0000
  C   C58       1.0  0.05893  0.75911  0.56060  1.0000
  C   C59       1.0  0.81981  0.61061  0.74912  1.0000
  C   C60       1.0  0.96959  0.59233  0.76330  1.0000
  C   C61       1.0  0.81438  0.83346  0.39565  1.0000
  C   C62       1.0  0.72111  0.83982  0.46392  1.0000
  C   C63       1.0  0.53774  0.37561  0.57669  1.0000
  C   C64       1.0  0.48950  0.45604  0.64921  1.0000
  C   C65       1.0  0.07528  0.68415  0.18139  1.0000
  C   C66       1.0  0.15710  0.61936  0.18984  1.0000
  C   C67       1.0  0.71610  0.16885  0.52772  1.0000
  C   C68       1.0  0.76255  0.17552  0.60755  1.0000
  C   C69       1.0  0.46698  0.63598  0.42384  1.0000
  C   C70       1.0  0.38796  0.56169  0.35827  1.0000
  C   C71       1.0  0.09445  0.33009  0.82128  1.0000
  C   C72       1.0  0.13837  0.40192  0.81107  1.0000
  N   N1        1.0  0.21913  0.63187  0.93059  1.0000
  N   N2        1.0  0.18122  0.66615  0.98485  1.0000
  N   N3        1.0  0.98398  0.98485  0.17827  1.0000
  N   N4        1.0  0.95475  0.04097  0.20009  1.0000
  N   N5        1.0  0.69180  0.34961  0.36114  1.0000
  N   N6        1.0  0.64245  0.37867  0.33880  1.0000
  N   N7        1.0  0.28966  0.24838  0.09526  1.0000
  N   N8        1.0  0.25142  0.20303  0.04608  1.0000
  N   N9        1.0  0.02101  0.00014  0.78189  1.0000
  N   N10       1.0  0.97959  0.94651  0.75904  1.0000
  N   N11       1.0  0.46809  0.83310  0.79271  1.0000
  N   N12       1.0  0.49585  0.85102  0.75495  1.0000
  N   N13       1.0  0.42260  0.90365  0.30000  1.0000
  N   N14       1.0  0.52060  0.91528  0.31529  1.0000
  N   N15       1.0  0.13330  0.28601  0.40772  1.0000
  N   N16       1.0  0.23200  0.29635  0.40452  1.0000
  N   N17       1.0  0.74700  0.44494  0.11929  1.0000
  N   N18       1.0  0.84635  0.44712  0.10902  1.0000
  N   N19       1.0  0.49768  0.27959  0.91814  1.0000
  N   N20       1.0  0.59375  0.26813  0.89836  1.0000
  N   N21       1.0  0.17965  0.71618  0.58056  1.0000
  N   N22       1.0  0.07854  0.71692  0.57508  1.0000
  N   N23       1.0  0.87644  0.60650  0.70361  1.0000
  N   N24       1.0  0.97186  0.59487  0.71265  1.0000
  N   N25       1.0  0.77890  0.88998  0.42528  1.0000
  N   N26       1.0  0.72007  0.89418  0.46910  1.0000
  N   N27       1.0  0.60685  0.41696  0.58225  1.0000
  N   N28       1.0  0.57647  0.46814  0.62870  1.0000
  N   N29       1.0  0.06474  0.63312  0.12900  1.0000
  N   N30       1.0  0.11655  0.59188  0.13444  1.0000
  N   N31       1.0  0.66113  0.12771  0.53322  1.0000
  N   N32       1.0  0.69108  0.13185  0.58420  1.0000
  N   N33       1.0  0.42677  0.60769  0.45102  1.0000
  N   N34       1.0  0.37682  0.56035  0.40930  1.0000
  N   N35       1.0  0.16598  0.36075  0.86346  1.0000
  N   N36       1.0  0.19370  0.40636  0.85707  1.0000
  O   O1        1.0  0.73803  0.90861  0.31352  1.0000
  O   O2        1.0  0.73145  0.81378  0.23500  1.0000
  O   O3        1.0  0.89839  0.88468  0.22868  1.0000
  O   O4        1.0  0.05755  0.88467  0.18815  1.0000
  O   O5        1.0  0.84474  0.75072  0.29834  1.0000
  O   O6        1.0  0.89636  0.84231  0.31781  1.0000
  O   O7        1.0  0.31747  0.76083  0.19086  1.0000
  O   O8        1.0  0.25293  0.85338  0.22080  1.0000
  O   O9        1.0  0.07815  0.79062  0.22817  1.0000
  O   O10       1.0  0.92877  0.74544  0.18842  1.0000
  O   O11       1.0  0.28848  0.81100  0.09368  1.0000
  O   O12       1.0  0.15276  0.76243  0.10603  1.0000
  O   O13       1.0  0.44888  0.28852  0.40199  1.0000
  O   O14       1.0  0.43910  0.20634  0.41213  1.0000
  O   O15       1.0  0.61678  0.20875  0.34742  1.0000
  O   O16       1.0  0.75778  0.26382  0.38914  1.0000
  O   O17       1.0  0.47432  0.27562  0.53412  1.0000
  O   O18       1.0  0.59830  0.29285  0.48250  1.0000
  O   O19       1.0  0.02846  0.15381  0.40365  1.0000
  O   O20       1.0  0.94870  0.23730  0.41503  1.0000
  O   O21       1.0  0.78146  0.21463  0.47489  1.0000
  O   O22       1.0  0.63134  0.16218  0.44122  1.0000
  O   O23       1.0  0.89347  0.16009  0.28145  1.0000
  O   O24       1.0  0.82101  0.13077  0.34228  1.0000
  O   O25       1.0  0.06380  0.45532  0.12226  1.0000
  O   O26       1.0  0.04765  0.48676  0.22122  1.0000
  O   O27       1.0  0.20874  0.40138  0.16426  1.0000
  O   O28       1.0  0.37349  0.36654  0.16382  1.0000
  O   O29       1.0  0.18356  0.61049  0.27639  1.0000
  O   O30       1.0  0.22113  0.53028  0.18652  1.0000
  O   O31       1.0  0.63952  0.49237  0.26602  1.0000
  O   O32       1.0  0.56556  0.43237  0.17576  1.0000
  O   O33       1.0  0.39606  0.50193  0.25213  1.0000
  O   O34       1.0  0.24226  0.51092  0.29476  1.0000
  O   O35       1.0  0.45525  0.31171  0.21924  1.0000
  O   O36       1.0  0.50679  0.40901  0.27169  1.0000
  O   O37       1.0  0.67187  0.13630  0.75977  1.0000
  O   O38       1.0  0.76833  0.21811  0.82004  1.0000
  O   O39       1.0  0.92213  0.11859  0.75956  1.0000
  O   O40       1.0  0.06672  0.11789  0.81272  1.0000
  O   O41       1.0  0.86620  0.24713  0.68830  1.0000
  O   O42       1.0  0.81206  0.16532  0.69184  1.0000
  O   O43       1.0  0.27942  0.27945  0.92319  1.0000
  O   O44       1.0  0.27265  0.18377  0.84668  1.0000
  O   O45       1.0  0.09892  0.24791  0.83698  1.0000
  O   O46       1.0  0.96501  0.25184  0.78068  1.0000
  O   O47       1.0  0.18122  0.13823  0.92666  1.0000
  O   O48       1.0  0.10887  0.22239  0.93680  1.0000
  O   O49       1.0  0.38824  0.74554  0.59397  1.0000
  O   O50       1.0  0.36788  0.80740  0.55606  1.0000
  O   O51       1.0  0.53876  0.83725  0.63896  1.0000
  O   O52       1.0  0.66728  0.77305  0.62836  1.0000
  O   O53       1.0  0.49312  0.73106  0.43182  1.0000
  O   O54       1.0  0.53301  0.72282  0.51269  1.0000
  O   O55       1.0  0.94197  0.82208  0.54566  1.0000
  O   O56       1.0  0.87687  0.75940  0.57531  1.0000
  O   O57       1.0  0.71412  0.78383  0.51371  1.0000
  O   O58       1.0  0.57929  0.84550  0.52741  1.0000
  O   O59       1.0  0.85488  0.84488  0.69757  1.0000
  O   O60       1.0  0.79007  0.87883  0.63888  1.0000
  O   O61       1.0  0.05222  0.57614  0.83724  1.0000
  O   O62       1.0  0.14264  0.55648  0.75393  1.0000
  O   O63       1.0  0.33989  0.59168  0.82170  1.0000
  O   O64       1.0  0.45097  0.66470  0.87066  1.0000
  O   O65       1.0  0.10769  0.43006  0.73663  1.0000
  O   O66       1.0  0.22036  0.48577  0.81172  1.0000
  O   O67       1.0  0.65856  0.61414  0.70648  1.0000
  O   O68       1.0  0.65553  0.62635  0.79973  1.0000
  O   O69       1.0  0.46972  0.55316  0.73733  1.0000
  O   O70       1.0  0.33800  0.48391  0.71088  1.0000
  O   O71       1.0  0.48377  0.76515  0.85527  1.0000
  O   O72       1.0  0.49501  0.68162  0.76379  1.0000
  O   O73       1.0  0.31692  0.71157  0.97547  1.0000
  O   O74       1.0  0.88914  0.00955  0.25761  1.0000
  O   O75       1.0  0.57289  0.28943  0.30045  1.0000
  O   O76       1.0  0.18427  0.28508  0.05535  1.0000
  O   O77       1.0  0.89747  0.99371  0.72066  1.0000
  O   O78       1.0  0.55122  0.75916  0.71862  1.0000
  O   O79       1.0  0.51141  0.82315  0.24037  1.0000
  O   O80       1.0  0.22032  0.21320  0.40789  1.0000
  O   O81       1.0  0.82856  0.47889  0.20466  1.0000
  O   O82       1.0  0.49725  0.19309  0.83520  1.0000
  O   O83       1.0  0.14391  0.78502  0.55731  1.0000
  O   O84       1.0  0.87635  0.60184  0.78605  1.0000
  O   O85       1.0  0.77869  0.80240  0.41905  1.0000
  O   O86       1.0  0.46553  0.39936  0.61752  1.0000
  O   O87       1.0  0.13117  0.67595  0.21897  1.0000
  O   O88       1.0  0.77806  0.19828  0.57314  1.0000
  O   O89       1.0  0.44257  0.60808  0.36696  1.0000
  O   O90       1.0  0.07715  0.35496  0.78851  1.0000
  Zn  Zn1       1.0  0.87128  0.81989  0.23937  1.0000
  Zn  Zn2       1.0  0.13161  0.82226  0.18494  1.0000
  Zn  Zn3       1.0  0.57772  0.21489  0.41924  1.0000
  Zn  Zn4       1.0  0.81946  0.21021  0.40497  1.0000
  Zn  Zn5       1.0  0.18816  0.48198  0.21822  1.0000
  Zn  Zn6       1.0  0.45532  0.42801  0.21641  1.0000
  Zn  Zn7       1.0  0.87445  0.18903  0.76490  1.0000
  Zn  Zn8       1.0  0.12959  0.19149  0.85631  1.0000
  Zn  Zn9       1.0  0.51030  0.80523  0.55902  1.0000
  Zn  Zn10      1.0  0.75427  0.79861  0.58827  1.0000
  Zn  Zn11      1.0  0.25622  0.53014  0.77646  1.0000
  Zn  Zn12      1.0  0.51437  0.63148  0.79451  1.0000
