data_image0
_chemical_formula_structural       C72Ga6H24O26
_chemical_formula_sum              "C72 Ga6 H24 O26"
_cell_length_a       22.242
_cell_length_b       22.4662
_cell_length_c       22.6575
_cell_angle_alpha    90
_cell_angle_beta     90
_cell_angle_gamma    118.388

_space_group_name_H-M_alt    "P 1"
_space_group_IT_number       1

loop_
  _space_group_symop_operation_xyz
  'x, y, z'

loop_
  _atom_site_type_symbol
  _atom_site_label
  _atom_site_symmetry_multiplicity
  _atom_site_fract_x
  _atom_site_fract_y
  _atom_site_fract_z
  _atom_site_occupancy
  C   C1        1.0  0.46099  0.76288  0.39553  1.0000
  C   C2        1.0  0.46885  0.56983  0.39492  1.0000
  C   C3        1.0  0.26887  0.56589  0.39516  1.0000
  C   C4        1.0  0.26889  0.56595  0.23826  1.0000
  C   C5        1.0  0.46843  0.56933  0.23848  1.0000
  C   C6        1.0  0.46097  0.76294  0.23781  1.0000
  C   C7        1.0  0.67192  0.16628  0.89554  1.0000
  C   C8        1.0  0.66497  0.35998  0.89482  1.0000
  C   C9        1.0  0.86412  0.36498  0.89545  1.0000
  C   C10       1.0  0.86458  0.36343  0.73824  1.0000
  C   C11       1.0  0.66324  0.35822  0.73822  1.0000
  C   C12       1.0  0.67309  0.16690  0.73791  1.0000
  C   C13       1.0  0.91608  0.39224  0.94103  1.0000
  C   C14       1.0  0.95976  0.41280  0.97920  1.0000
  C   C15       1.0  0.01255  0.43711  0.02476  1.0000
  C   C16       1.0  0.06501  0.42009  0.02342  1.0000
  C   C17       1.0  0.11859  0.44690  0.06444  1.0000
  C   C18       1.0  0.12071  0.49084  0.10870  1.0000
  C   C19       1.0  0.06811  0.50770  0.11016  1.0000
  C   C20       1.0  0.01462  0.48102  0.06904  1.0000
  C   C21       1.0  0.17512  0.51771  0.15286  1.0000
  C   C22       1.0  0.21784  0.54024  0.19180  1.0000
  C   C23       1.0  0.64766  0.11588  0.69140  1.0000
  C   C24       1.0  0.62269  0.07317  0.65270  1.0000
  C   C25       1.0  0.59525  0.01955  0.60787  1.0000
  C   C26       1.0  0.54784  0.01528  0.56548  1.0000
  C   C27       1.0  0.52002  0.96164  0.52491  1.0000
  C   C28       1.0  0.53832  0.91048  0.52516  1.0000
  C   C29       1.0  0.58578  0.91474  0.56748  1.0000
  C   C30       1.0  0.61356  0.96836  0.60812  1.0000
  C   C31       1.0  0.50938  0.85582  0.48140  1.0000
  C   C32       1.0  0.48586  0.81346  0.44234  1.0000
  C   C33       1.0  0.49260  0.54328  0.19125  1.0000
  C   C34       1.0  0.51206  0.52055  0.15162  1.0000
  C   C35       1.0  0.54055  0.49424  0.10756  1.0000
  C   C36       1.0  0.50809  0.46915  0.05390  1.0000
  C   C37       1.0  0.53385  0.44015  0.01342  1.0000
  C   C38       1.0  0.59262  0.43546  0.02537  1.0000
  C   C39       1.0  0.62564  0.46117  0.07885  1.0000
  C   C40       1.0  0.59972  0.49009  0.11948  1.0000
  C   C41       1.0  0.61926  0.40680  0.98174  1.0000
  C   C42       1.0  0.64023  0.38552  0.94206  1.0000
  C   C43       1.0  0.91504  0.38919  0.69133  1.0000
  C   C44       1.0  0.95731  0.41159  0.65201  1.0000
  C   C45       1.0  0.01223  0.43836  0.60834  1.0000
  C   C46       1.0  0.00231  0.45449  0.55106  1.0000
  C   C47       1.0  0.05597  0.48058  0.51012  1.0000
  C   C48       1.0  0.12091  0.49093  0.52482  1.0000
  C   C49       1.0  0.13093  0.47513  0.58220  1.0000
  C   C50       1.0  0.07725  0.44905  0.62318  1.0000
  C   C51       1.0  0.17571  0.51750  0.48102  1.0000
  C   C52       1.0  0.21813  0.54052  0.44188  1.0000
  C   C53       1.0  0.64575  0.11455  0.94120  1.0000
  C   C54       1.0  0.62234  0.07122  0.97938  1.0000
  C   C55       1.0  0.59487  0.01905  0.02525  1.0000
  C   C56       1.0  0.52929  0.99570  0.04810  1.0000
  C   C57       1.0  0.50168  0.94223  0.08879  1.0000
  C   C58       1.0  0.53866  0.91067  0.10844  1.0000
  C   C59       1.0  0.60445  0.93429  0.08587  1.0000
  C   C60       1.0  0.63205  0.98775  0.04510  1.0000
  C   C61       1.0  0.50968  0.85639  0.15247  1.0000
  C   C62       1.0  0.48595  0.81379  0.19130  1.0000
  C   C63       1.0  0.63684  0.38231  0.69121  1.0000
  C   C64       1.0  0.61778  0.40572  0.65184  1.0000
  C   C65       1.0  0.59307  0.43639  0.60848  1.0000
  C   C66       1.0  0.56274  0.47498  0.62649  1.0000
  C   C67       1.0  0.53676  0.50327  0.58537  1.0000
  C   C68       1.0  0.54146  0.49430  0.52510  1.0000
  C   C69       1.0  0.57195  0.45591  0.50721  1.0000
  C   C70       1.0  0.59786  0.42762  0.54826  1.0000
  C   C71       1.0  0.51498  0.52299  0.48141  1.0000
  C   C72       1.0  0.49436  0.54482  0.44194  1.0000
  Ga  Ga1       1.0  0.48345  0.67567  0.31652  1.0000
  Ga  Ga2       1.0  0.36088  0.55065  0.31682  1.0000
  Ga  Ga3       1.0  0.35519  0.67334  0.31669  1.0000
  Ga  Ga4       1.0  0.65057  0.25384  0.81696  1.0000
  Ga  Ga5       1.0  0.77217  0.37896  0.81602  1.0000
  Ga  Ga6       1.0  0.77877  0.25627  0.81733  1.0000
  H   H1        1.0  0.06524  0.38676  0.99005  1.0000
  H   H2        1.0  0.15848  0.43359  0.06093  1.0000
  H   H3        1.0  0.06860  0.54201  0.14287  1.0000
  H   H4        1.0  0.97547  0.49545  0.07168  1.0000
  H   H5        1.0  0.53146  0.05274  0.56362  1.0000
  H   H6        1.0  0.48393  0.96001  0.49315  1.0000
  H   H7        1.0  0.60172  0.87693  0.56956  1.0000
  H   H8        1.0  0.64926  0.96970  0.64018  1.0000
  H   H9        1.0  0.46202  0.47037  0.04350  1.0000
  H   H10       1.0  0.50764  0.42110  0.97274  1.0000
  H   H11       1.0  0.67125  0.45906  0.08956  1.0000
  H   H12       1.0  0.62526  0.50821  0.16066  1.0000
  H   H13       1.0  0.95326  0.44670  0.53746  1.0000
  H   H14       1.0  0.04672  0.49271  0.46674  1.0000
  H   H15       1.0  0.17997  0.48278  0.59576  1.0000
  H   H16       1.0  0.08644  0.43678  0.66654  1.0000
  H   H17       1.0  0.49866  0.01790  0.03420  1.0000
  H   H18       1.0  0.45102  0.92518  0.10466  1.0000
  H   H19       1.0  0.63473  0.91149  0.09920  1.0000
  H   H20       1.0  0.68229  0.00413  0.02842  1.0000
  H   H21       1.0  0.55850  0.48264  0.67244  1.0000
  H   H22       1.0  0.51236  0.53116  0.60100  1.0000
  H   H23       1.0  0.57493  0.44705  0.46135  1.0000
  H   H24       1.0  0.62095  0.39855  0.53265  1.0000
  O   O1        1.0  0.50402  0.74288  0.37362  1.0000
  O   O2        1.0  0.40734  0.52855  0.37334  1.0000
  O   O3        1.0  0.28768  0.62747  0.37379  1.0000
  O   O4        1.0  0.29324  0.52620  0.25901  1.0000
  O   O5        1.0  0.50828  0.63180  0.25854  1.0000
  O   O6        1.0  0.39752  0.74020  0.25833  1.0000
  O   O7        1.0  0.50400  0.74291  0.25961  1.0000
  O   O8        1.0  0.40717  0.52841  0.26055  1.0000
  O   O9        1.0  0.28771  0.62757  0.25959  1.0000
  O   O10       1.0  0.29319  0.52610  0.37444  1.0000
  O   O11       1.0  0.50829  0.63210  0.37444  1.0000
  O   O12       1.0  0.39755  0.74017  0.37504  1.0000
  O   O13       1.0  0.39999  0.63335  0.31665  1.0000
  O   O14       1.0  0.62944  0.18683  0.87367  1.0000
  O   O15       1.0  0.72607  0.40120  0.87260  1.0000
  O   O16       1.0  0.84606  0.30321  0.87460  1.0000
  O   O17       1.0  0.84018  0.40319  0.75881  1.0000
  O   O18       1.0  0.62463  0.29607  0.75905  1.0000
  O   O19       1.0  0.73652  0.18951  0.75854  1.0000
  O   O20       1.0  0.63006  0.18669  0.76006  1.0000
  O   O21       1.0  0.72474  0.40025  0.75950  1.0000
  O   O22       1.0  0.84623  0.30197  0.75997  1.0000
  O   O23       1.0  0.83924  0.40401  0.87416  1.0000
  O   O24       1.0  0.62549  0.29753  0.87474  1.0000
  O   O25       1.0  0.73555  0.18878  0.87539  1.0000
  O   O26       1.0  0.73392  0.29628  0.81674  1.0000
