data_image0
_chemical_formula_structural       C150Cd6H96N12O48
_chemical_formula_sum              "C150 Cd6 H96 N12 O48"
_cell_length_a       17.8805
_cell_length_b       55.9186
_cell_length_c       56.5278
_cell_angle_alpha    62.4774
_cell_angle_beta     87.3528
_cell_angle_gamma    87.3334

_space_group_name_H-M_alt    "P 1"
_space_group_IT_number       1

loop_
  _space_group_symop_operation_xyz
  'x, y, z'

loop_
  _atom_site_type_symbol
  _atom_site_label
  _atom_site_symmetry_multiplicity
  _atom_site_fract_x
  _atom_site_fract_y
  _atom_site_fract_z
  _atom_site_occupancy
  C   C1        1.0  0.07788  0.59995  0.63681  1.0000
  C   C2        1.0  0.01362  0.60727  0.62119  1.0000
  C   C3        1.0  0.94720  0.61527  0.62995  1.0000
  C   C4        1.0  0.93333  0.68667  0.66014  1.0000
  C   C5        1.0  0.94163  0.73121  0.62580  1.0000
  C   C6        1.0  0.92938  0.75360  0.63048  1.0000
  C   C7        1.0  0.89259  0.77683  0.61178  1.0000
  C   C8        1.0  0.84559  0.66692  0.69569  1.0000
  C   C9        1.0  0.81996  0.64687  0.74211  1.0000
  C   C10       1.0  0.87993  0.64965  0.75566  1.0000
  C   C11       1.0  0.89771  0.62927  0.78104  1.0000
  C   C12       1.0  0.85574  0.60572  0.79336  1.0000
  C   C13       1.0  0.79563  0.60300  0.77961  1.0000
  C   C14       1.0  0.77843  0.62327  0.75412  1.0000
  C   C15       1.0  0.88076  0.64518  0.66952  1.0000
  C   C16       1.0  0.00658  0.60749  0.67063  1.0000
  C   C17       1.0  0.94330  0.61562  0.65458  1.0000
  C   C18       1.0  0.07337  0.59995  0.66170  1.0000
  C   C19       1.0  0.86174  0.50671  0.94891  1.0000
  C   C20       1.0  0.62458  0.48962  0.95760  1.0000
  C   C21       1.0  0.74514  0.53725  0.87699  1.0000
  C   C22       1.0  0.52242  0.45865  0.98495  1.0000
  C   C23       1.0  0.55568  0.48377  0.97453  1.0000
  C   C24       1.0  0.02218  0.50593  0.99021  1.0000
  C   C25       1.0  0.96240  0.51442  0.97392  1.0000
  C   C26       1.0  0.92831  0.49770  0.96561  1.0000
  C   C27       1.0  0.99356  0.54708  0.98146  1.0000
  C   C28       1.0  0.87060  0.55602  0.82450  1.0000
  C   C29       1.0  0.80785  0.53926  0.83621  1.0000
  C   C30       1.0  0.80987  0.51325  0.83804  1.0000
  C   C31       1.0  0.87145  0.50408  0.82813  1.0000
  C   C32       1.0  0.93214  0.52065  0.81627  1.0000
  C   C33       1.0  0.93175  0.54640  0.81441  1.0000
  C   C34       1.0  0.87413  0.58440  0.82131  1.0000
  C   C35       1.0  0.73918  0.54777  0.84751  1.0000
  C   C36       1.0  0.91513  0.73204  0.60241  1.0000
  C   C37       1.0  0.52026  0.50320  0.98102  1.0000
  C   C38       1.0  0.02117  0.46253  0.99150  1.0000
  C   C39       1.0  0.95898  0.47127  0.97473  1.0000
  C   C40       1.0  0.15025  0.59086  0.62799  1.0000
  C   C41       1.0  0.86746  0.77798  0.58808  1.0000
  C   C42       1.0  0.87820  0.75526  0.58370  1.0000
  C   C43       1.0  0.16871  0.55382  0.57165  1.0000
  C   C44       1.0  0.99820  0.44622  0.56194  1.0000
  C   C45       1.0  0.49823  0.44523  0.56120  1.0000
  C   C46       1.0  0.83211  0.80378  0.56713  1.0000
  C   C47       1.0  0.16680  0.60662  0.59814  1.0000
  C   C48       1.0  0.17264  0.59442  0.58082  1.0000
  C   C49       1.0  0.19311  0.65032  0.56045  1.0000
  C   C50       1.0  0.17773  0.63449  0.58758  1.0000
  C   C51       1.0  0.16314  0.56416  0.59192  1.0000
  C   C52       1.0  0.49169  0.41812  0.99487  1.0000
  C   C53       1.0  0.88879  0.82607  0.55398  1.0000
  C   C54       1.0  0.87082  0.85347  0.54761  1.0000
  C   C55       1.0  0.92886  0.87231  0.53783  1.0000
  C   C56       1.0  0.96077  0.81952  0.54691  1.0000
  C   C57       1.0  0.79180  0.86224  0.55230  1.0000
  C   C58       1.0  0.18852  0.61100  0.55336  1.0000
  C   C59       1.0  0.19840  0.63862  0.54340  1.0000
  C   C60       1.0  0.77551  0.89192  0.53593  1.0000
  C   C61       1.0  0.64370  0.97205  0.51497  1.0000
  C   C62       1.0  0.12819  0.51834  0.52637  1.0000
  C   C63       1.0  0.35887  0.51779  0.52602  1.0000
  C   C64       1.0  0.96629  0.47902  0.52405  1.0000
  C   C65       1.0  0.02748  0.48632  0.53234  1.0000
  C   C66       1.0  0.06073  0.51121  0.51734  1.0000
  C   C67       1.0  0.97623  0.99981  0.51544  1.0000
  C   C68       1.0  0.46487  0.48503  0.53122  1.0000
  C   C69       1.0  0.42936  0.51010  0.51640  1.0000
  C   C70       1.0  0.52926  0.47732  0.52250  1.0000
  C   C71       1.0  0.53505  0.99578  0.52599  1.0000
  C   C72       1.0  0.46887  0.01204  0.51863  1.0000
  C   C73       1.0  0.00038  0.86498  0.53212  1.0000
  C   C74       1.0  0.01589  0.83879  0.53620  1.0000
  C   C75       1.0  0.86630  0.48752  0.49138  1.0000
  C   C76       1.0  0.63615  0.48566  0.48971  1.0000
  C   C77       1.0  0.87518  0.97311  0.50995  1.0000
  C   C78       1.0  0.93249  0.49587  0.49992  1.0000
  C   C79       1.0  0.02785  0.52890  0.49285  1.0000
  C   C80       1.0  0.94319  0.98913  0.50026  1.0000
  C   C81       1.0  0.03991  0.01596  0.50548  1.0000
  C   C82       1.0  0.46298  0.52738  0.49148  1.0000
  C   C83       1.0  0.56437  0.49388  0.49807  1.0000
  C   C84       1.0  0.57329  0.98827  0.50790  1.0000
  C   C85       1.0  0.43983  0.02140  0.49291  1.0000
  C   C86       1.0  0.36976  0.03787  0.48515  1.0000
  C   C87       1.0  0.96437  0.52129  0.48420  1.0000
  C   C88       1.0  0.97676  0.99504  0.47544  1.0000
  C   C89       1.0  0.07185  0.02175  0.48014  1.0000
  C   C90       1.0  0.52980  0.51934  0.48240  1.0000
  C   C91       1.0  0.54277  0.99775  0.48272  1.0000
  C   C92       1.0  0.47939  0.01364  0.47553  1.0000
  C   C93       1.0  0.13737  0.03895  0.46930  1.0000
  C   C94       1.0  0.45830  0.45295  0.00025  1.0000
  C   C95       1.0  0.97587  0.40928  0.37745  1.0000
  C   C96       1.0  0.97777  0.38118  0.39347  1.0000
  C   C97       1.0  0.01969  0.36449  0.38524  1.0000
  C   C98       1.0  0.99539  0.35659  0.30030  1.0000
  C   C99       1.0  0.02307  0.37598  0.25363  1.0000
  C   C100      1.0  0.04618  0.35281  0.25119  1.0000
  C   C101      1.0  0.09164  0.35508  0.22950  1.0000
  C   C102      1.0  0.11362  0.38049  0.20955  1.0000
  C   C103      1.0  0.08933  0.40365  0.21186  1.0000
  C   C104      1.0  0.04516  0.40132  0.23386  1.0000
  C   C105      1.0  0.99349  0.31386  0.33811  1.0000
  C   C106      1.0  0.02113  0.26722  0.35411  1.0000
  C   C107      1.0  0.04490  0.24841  0.37945  1.0000
  C   C108      1.0  0.09229  0.22665  0.38248  1.0000
  C   C109      1.0  0.11665  0.22341  0.36012  1.0000
  C   C110      1.0  0.09529  0.24291  0.33458  1.0000
  C   C111      1.0  0.04744  0.26459  0.33159  1.0000
  C   C112      1.0  0.06018  0.34898  0.33862  1.0000
  C   C113      1.0  0.05615  0.40359  0.34436  1.0000
  C   C114      1.0  0.05948  0.37562  0.36064  1.0000
  C   C115      1.0  0.01480  0.42034  0.35270  1.0000
  C   C116      1.0  0.81719  0.45880  0.43765  1.0000
  C   C117      1.0  0.11922  0.47111  0.01695  1.0000
  C   C118      1.0  0.16373  0.44210  0.09735  1.0000
  C   C119      1.0  0.34950  0.46561  0.02205  1.0000
  C   C120      1.0  0.22763  0.11456  0.42579  1.0000
  C   C121      1.0  0.03814  0.01060  0.46584  1.0000
  C   C122      1.0  0.00593  0.99899  0.43632  1.0000
  C   C123      1.0  0.42130  0.47171  0.00683  1.0000
  C   C124      1.0  0.45387  0.49721  0.99706  1.0000
  C   C125      1.0  0.51908  0.00727  0.44215  1.0000
  C   C126      1.0  0.05386  0.47995  0.99965  1.0000
  C   C127      1.0  0.96722  0.42593  0.41233  1.0000
  C   C128      1.0  0.92203  0.43079  0.43122  1.0000
  C   C129      1.0  0.95410  0.42620  0.45540  1.0000
  C   C130      1.0  0.03014  0.41979  0.45969  1.0000
  C   C131      1.0  0.07566  0.41761  0.44013  1.0000
  C   C132      1.0  0.04485  0.42076  0.41663  1.0000
  C   C133      1.0  0.93441  0.42738  0.38725  1.0000
  C   C134      1.0  0.83973  0.43964  0.42661  1.0000
  C   C135      1.0  0.20959  0.40590  0.17239  1.0000
  C   C136      1.0  0.20697  0.42566  0.14501  1.0000
  C   C137      1.0  0.25635  0.44740  0.13565  1.0000
  C   C138      1.0  0.30924  0.44881  0.15231  1.0000
  C   C139      1.0  0.31384  0.42880  0.17862  1.0000
  C   C140      1.0  0.26464  0.40752  0.18858  1.0000
  C   C141      1.0  0.15671  0.38238  0.18503  1.0000
  C   C142      1.0  0.15006  0.42400  0.12660  1.0000
  C   C143      1.0  0.10997  0.17386  0.37545  1.0000
  C   C144      1.0  0.12992  0.14888  0.39776  1.0000
  C   C145      1.0  0.07515  0.12885  0.40918  1.0000
  C   C146      1.0  0.00601  0.13224  0.39745  1.0000
  C   C147      1.0  0.98948  0.15566  0.37430  1.0000
  C   C148      1.0  0.04082  0.17625  0.36335  1.0000
  C   C149      1.0  0.16038  0.19815  0.36383  1.0000
  C   C150      1.0  0.20728  0.14396  0.40978  1.0000
  Cd  Cd1       1.0  0.74936  0.52008  0.92422  1.0000
  Cd  Cd2       1.0  0.24044  0.52895  0.54023  1.0000
  Cd  Cd3       1.0  0.76230  0.94864  0.52508  1.0000
  Cd  Cd4       1.0  0.75763  0.47412  0.47813  1.0000
  Cd  Cd5       1.0  0.22835  0.45713  0.04346  1.0000
  Cd  Cd6       1.0  0.24348  0.06696  0.45188  1.0000
  H   H1        1.0  0.85364  0.60633  0.68068  1.0000
  H   H2        1.0  0.00408  0.60710  0.68998  1.0000
  H   H3        1.0  0.89841  0.62097  0.61764  1.0000
  H   H4        1.0  0.02436  0.70183  0.63475  1.0000
  H   H5        1.0  0.94949  0.75317  0.64846  1.0000
  H   H6        1.0  0.88489  0.79413  0.61552  1.0000
  H   H7        1.0  0.74360  0.66843  0.71271  1.0000
  H   H8        1.0  0.91240  0.66775  0.74663  1.0000
  H   H9        1.0  0.94389  0.63203  0.79120  1.0000
  H   H10       1.0  0.76157  0.58532  0.78851  1.0000
  H   H11       1.0  0.73190  0.62080  0.74392  1.0000
  H   H12       1.0  0.99424  0.56655  0.98115  1.0000
  H   H13       1.0  0.76331  0.49998  0.84715  1.0000
  H   H14       1.0  0.87198  0.48407  0.82962  1.0000
  H   H15       1.0  0.97969  0.51352  0.80849  1.0000
  H   H16       1.0  0.97951  0.55897  0.80502  1.0000
  H   H17       1.0  0.93119  0.58734  0.82643  1.0000
  H   H18       1.0  0.83656  0.58745  0.83587  1.0000
  H   H19       1.0  0.72896  0.56992  0.83748  1.0000
  H   H20       1.0  0.68903  0.53899  0.84392  1.0000
  H   H21       1.0  0.12146  0.59387  0.67437  1.0000
  H   H22       1.0  0.54339  0.52301  0.97368  1.0000
  H   H23       1.0  0.93496  0.45732  0.96904  1.0000
  H   H24       1.0  0.19823  0.59299  0.63866  1.0000
  H   H25       1.0  0.14681  0.56891  0.63494  1.0000
  H   H26       1.0  0.20731  0.55357  0.60674  1.0000
  H   H27       1.0  0.01459  0.60677  0.60226  1.0000
  H   H28       1.0  0.92415  0.71487  0.59854  1.0000
  H   H29       1.0  0.85943  0.75569  0.56556  1.0000
  H   H30       1.0  0.99891  0.42698  0.57975  1.0000
  H   H31       1.0  0.49885  0.42628  0.57931  1.0000
  H   H32       1.0  0.78653  0.80971  0.57752  1.0000
  H   H33       1.0  0.78344  0.85644  0.57386  1.0000
  H   H34       1.0  0.17403  0.64405  0.60048  1.0000
  H   H35       1.0  0.10708  0.55906  0.60204  1.0000
  H   H36       1.0  0.55603  0.98914  0.54579  1.0000
  H   H37       1.0  0.97505  0.79927  0.55004  1.0000
  H   H38       1.0  0.80672  0.80047  0.55133  1.0000
  H   H39       1.0  0.75074  0.85178  0.54642  1.0000
  H   H40       1.0  0.19367  0.60290  0.53929  1.0000
  H   H41       1.0  0.20109  0.67174  0.55263  1.0000
  H   H42       1.0  0.95278  0.99596  0.53484  1.0000
  H   H43       1.0  0.06358  0.02396  0.51756  1.0000
  H   H44       1.0  0.44081  0.01728  0.53307  1.0000
  H   H45       1.0  0.91936  0.89295  0.53423  1.0000
  H   H46       1.0  0.04373  0.87978  0.52425  1.0000
  H   H47       1.0  0.07115  0.83329  0.53133  1.0000
  H   H48       1.0  0.21052  0.65099  0.52234  1.0000
  H   H49       1.0  0.05124  0.54847  0.48029  1.0000
  H   H50       1.0  0.43790  0.54702  0.47900  1.0000
  H   H51       1.0  0.05401  0.41684  0.47813  1.0000
  H   H52       1.0  0.92062  0.42799  0.47099  1.0000
  H   H53       1.0  0.49236  0.39824  0.99606  1.0000
  H   H54       1.0  0.12675  0.34226  0.36931  1.0000
  H   H55       1.0  0.08662  0.41244  0.32538  1.0000
  H   H56       1.0  0.01414  0.44195  0.34001  1.0000
  H   H57       1.0  0.94805  0.37225  0.41260  1.0000
  H   H58       1.0  0.02149  0.34291  0.39804  1.0000
  H   H59       1.0  0.91800  0.36892  0.27096  1.0000
  H   H60       1.0  0.02784  0.33308  0.26572  1.0000
  H   H61       1.0  0.02603  0.41939  0.23508  1.0000
  H   H62       1.0  0.10795  0.33697  0.22790  1.0000
  H   H63       1.0  0.10315  0.42361  0.19646  1.0000
  H   H64       1.0  0.91789  0.28541  0.34254  1.0000
  H   H65       1.0  0.02453  0.25013  0.39696  1.0000
  H   H66       1.0  0.10794  0.21180  0.40234  1.0000
  H   H67       1.0  0.11314  0.24077  0.31707  1.0000
  H   H68       1.0  0.02904  0.27882  0.31190  1.0000
  H   H69       1.0  0.94055  0.53527  0.46530  1.0000
  H   H70       1.0  0.00514  0.99697  0.41821  1.0000
  H   H71       1.0  0.42765  0.51266  0.00139  1.0000
  H   H72       1.0  0.55452  0.53314  0.46332  1.0000
  H   H73       1.0  0.52330  0.00810  0.42264  1.0000
  H   H74       1.0  0.04328  0.44214  0.99810  1.0000
  H   H75       1.0  0.13500  0.41314  0.44330  1.0000
  H   H76       1.0  0.08211  0.41871  0.40200  1.0000
  H   H77       1.0  0.93340  0.44876  0.37154  1.0000
  H   H78       1.0  0.87590  0.42038  0.39168  1.0000
  H   H79       1.0  0.82917  0.45070  0.40493  1.0000
  H   H80       1.0  0.80464  0.42150  0.43588  1.0000
  H   H81       1.0  0.25483  0.46347  0.11538  1.0000
  H   H82       1.0  0.34703  0.46548  0.14473  1.0000
  H   H83       1.0  0.35531  0.42990  0.19141  1.0000
  H   H84       1.0  0.26887  0.39232  0.20921  1.0000
  H   H85       1.0  0.18990  0.36341  0.19005  1.0000
  H   H86       1.0  0.11383  0.38324  0.17115  1.0000
  H   H87       1.0  0.15228  0.40312  0.12900  1.0000
  H   H88       1.0  0.09333  0.42852  0.13269  1.0000
  H   H89       1.0  0.08546  0.11023  0.42713  1.0000
  H   H90       1.0  0.96539  0.11649  0.40624  1.0000
  H   H91       1.0  0.93618  0.15805  0.36501  1.0000
  H   H92       1.0  0.02562  0.19440  0.34556  1.0000
  H   H93       1.0  0.18530  0.20039  0.34455  1.0000
  H   H94       1.0  0.20685  0.19546  0.37723  1.0000
  H   H95       1.0  0.25009  0.15234  0.39335  1.0000
  H   H96       1.0  0.20949  0.15425  0.42248  1.0000
  N   N1        1.0  0.92687  0.66581  0.65440  1.0000
  N   N2        1.0  0.87355  0.62299  0.66356  1.0000
  N   N3        1.0  0.89254  0.68718  0.68076  1.0000
  N   N4        1.0  0.98302  0.70810  0.64458  1.0000
  N   N5        1.0  0.83951  0.64601  0.68996  1.0000
  N   N6        1.0  0.80031  0.66846  0.71652  1.0000
  N   N7        1.0  0.03899  0.36573  0.31328  1.0000
  N   N8        1.0  0.10525  0.35879  0.35244  1.0000
  N   N9        1.0  0.97250  0.33069  0.31281  1.0000
  N   N10       1.0  0.97008  0.37463  0.27409  1.0000
  N   N11       1.0  0.03734  0.32305  0.35095  1.0000
  N   N12       1.0  0.96485  0.28721  0.35194  1.0000
  O   O1        1.0  0.74973  0.55335  0.88810  1.0000
  O   O2        1.0  0.74327  0.51120  0.89359  1.0000
  O   O3        1.0  0.65130  0.51402  0.94594  1.0000
  O   O4        1.0  0.66063  0.47037  0.95422  1.0000
  O   O5        1.0  0.83265  0.53145  0.93964  1.0000
  O   O6        1.0  0.82565  0.49017  0.94302  1.0000
  O   O7        1.0  0.54313  0.43619  0.98164  1.0000
  O   O8        1.0  0.94456  0.54077  0.96853  1.0000
  O   O9        1.0  0.23392  0.54589  0.56561  1.0000
  O   O10       1.0  0.04164  0.52705  0.99483  1.0000
  O   O11       1.0  0.10784  0.55144  0.56086  1.0000
  O   O12       1.0  0.77034  0.90765  0.54745  1.0000
  O   O13       1.0  0.32399  0.50099  0.54826  1.0000
  O   O14       1.0  0.16176  0.50133  0.54845  1.0000
  O   O15       1.0  0.04740  0.46514  0.55662  1.0000
  O   O16       1.0  0.94810  0.45331  0.54317  1.0000
  O   O17       1.0  0.55007  0.45183  0.54190  1.0000
  O   O18       1.0  0.44558  0.46430  0.55600  1.0000
  O   O19       1.0  0.67874  0.96647  0.53707  1.0000
  O   O20       1.0  0.84220  0.96795  0.53313  1.0000
  O   O21       1.0  0.32506  0.54157  0.51253  1.0000
  O   O22       1.0  0.15998  0.54190  0.51266  1.0000
  O   O23       1.0  0.67231  0.46304  0.50533  1.0000
  O   O24       1.0  0.83385  0.46442  0.50655  1.0000
  O   O25       1.0  0.67742  0.96307  0.49921  1.0000
  O   O26       1.0  0.77249  0.90253  0.50984  1.0000
  O   O27       1.0  0.84208  0.96356  0.49580  1.0000
  O   O28       1.0  0.32753  0.04108  0.50317  1.0000
  O   O29       1.0  0.16892  0.04979  0.48259  1.0000
  O   O30       1.0  0.67041  0.50106  0.46673  1.0000
  O   O31       1.0  0.83509  0.50271  0.46822  1.0000
  O   O32       1.0  0.43920  0.42696  0.00644  1.0000
  O   O33       1.0  0.77249  0.45092  0.45885  1.0000
  O   O34       1.0  0.84875  0.48233  0.42800  1.0000
  O   O35       1.0  0.31379  0.44329  0.02814  1.0000
  O   O36       1.0  0.31483  0.48266  0.02933  1.0000
  O   O37       1.0  0.21697  0.43581  0.08420  1.0000
  O   O38       1.0  0.11825  0.46281  0.08438  1.0000
  O   O39       1.0  0.15214  0.44717  0.02451  1.0000
  O   O40       1.0  0.14973  0.48670  0.02545  1.0000
  O   O41       1.0  0.23412  0.09817  0.41483  1.0000
  O   O42       1.0  0.23315  0.10309  0.45198  1.0000
  O   O43       1.0  0.34688  0.04836  0.46052  1.0000
  O   O44       1.0  0.16824  0.04466  0.44568  1.0000
  O   O45       1.0  0.05622  0.01298  0.44078  1.0000
  O   O46       1.0  0.95668  0.98777  0.45633  1.0000
  O   O47       1.0  0.46473  0.01951  0.44954  1.0000
  O   O48       1.0  0.56773  0.99390  0.46115  1.0000
