data_image0
_chemical_formula_structural       Na4Cd4H200C284O60
_chemical_formula_sum              "Na4 Cd4 H200 C284 O60"
_cell_length_a       25.6719
_cell_length_b       36.7489
_cell_length_c       37.7295
_cell_angle_alpha    88.513
_cell_angle_beta     89.793
_cell_angle_gamma    85.691

_space_group_name_H-M_alt    "P 1"
_space_group_IT_number       1

loop_
  _space_group_symop_operation_xyz
  'x, y, z'

loop_
  _atom_site_type_symbol
  _atom_site_label
  _atom_site_symmetry_multiplicity
  _atom_site_fract_x
  _atom_site_fract_y
  _atom_site_fract_z
  _atom_site_occupancy
  Na  Na1       1.0  0.96708  0.10660  0.05596  1.0000
  Na  Na2       1.0  0.94273  0.87919  0.96008  1.0000
  Na  Na3       1.0  0.48234  0.60248  0.44114  1.0000
  Na  Na4       1.0  0.45618  0.39005  0.57242  1.0000
  Cd  Cd1       1.0  0.98858  0.01984  0.01381  1.0000
  Cd  Cd2       1.0  0.91938  0.97002  0.98470  1.0000
  Cd  Cd3       1.0  0.50775  0.51996  0.48299  1.0000
  Cd  Cd4       1.0  0.43785  0.47072  0.51546  1.0000
  H   H1        1.0  0.05505  0.78976  0.36452  1.0000
  H   H2        1.0  0.95180  0.75063  0.41890  1.0000
  H   H3        1.0  0.92066  0.77622  0.34222  1.0000
  H   H4        1.0  0.04058  0.72093  0.32509  1.0000
  H   H5        1.0  0.03701  0.20900  0.62705  1.0000
  H   H6        1.0  0.91681  0.24289  0.58061  1.0000
  H   H7        1.0  0.89074  0.20977  0.64972  1.0000
  H   H8        1.0  0.99841  0.26526  0.67723  1.0000
  H   H9        1.0  0.39572  0.27124  0.11682  1.0000
  H   H10       1.0  0.51345  0.24389  0.09459  1.0000
  H   H11       1.0  0.53678  0.26449  0.16845  1.0000
  H   H12       1.0  0.42420  0.21514  0.18717  1.0000
  H   H13       1.0  0.37853  0.71960  0.89264  1.0000
  H   H14       1.0  0.48217  0.74773  0.90748  1.0000
  H   H15       1.0  0.50913  0.71925  0.83353  1.0000
  H   H16       1.0  0.38885  0.77585  0.81520  1.0000
  H   H17       1.0  0.70727  0.91674  0.88177  1.0000
  H   H18       1.0  0.75549  0.96837  0.87518  1.0000
  H   H19       1.0  0.80845  0.97696  0.90601  1.0000
  H   H20       1.0  0.73577  0.83920  0.96854  1.0000
  H   H21       1.0  0.80018  0.84443  0.01012  1.0000
  H   H22       1.0  0.84219  0.88289  0.00869  1.0000
  H   H23       1.0  0.67512  0.81115  0.95303  1.0000
  H   H24       1.0  0.62902  0.75912  0.96080  1.0000
  H   H25       1.0  0.57852  0.74839  0.92899  1.0000
  H   H26       1.0  0.64802  0.88619  0.86346  1.0000
  H   H27       1.0  0.58148  0.87742  0.82137  1.0000
  H   H28       1.0  0.54204  0.83754  0.82513  1.0000
  H   H29       1.0  0.75134  0.05752  0.11083  1.0000
  H   H30       1.0  0.80717  0.00320  0.11342  1.0000
  H   H31       1.0  0.86174  0.99560  0.08198  1.0000
  H   H32       1.0  0.75991  0.13280  0.02194  1.0000
  H   H33       1.0  0.83526  0.13698  0.98975  1.0000
  H   H34       1.0  0.89524  0.10970  0.00428  1.0000
  H   H35       1.0  0.71027  0.16965  0.04546  1.0000
  H   H36       1.0  0.65948  0.22459  0.03963  1.0000
  H   H37       1.0  0.60916  0.23767  0.07270  1.0000
  H   H38       1.0  0.68921  0.09145  0.13133  1.0000
  H   H39       1.0  0.62488  0.10426  0.17606  1.0000
  H   H40       1.0  0.58254  0.14714  0.17441  1.0000
  H   H41       1.0  0.64415  0.34343  0.52717  1.0000
  H   H42       1.0  0.55885  0.33964  0.51066  1.0000
  H   H43       1.0  0.51064  0.37898  0.51269  1.0000
  H   H44       1.0  0.69322  0.43333  0.58665  1.0000
  H   H45       1.0  0.64714  0.49124  0.58163  1.0000
  H   H46       1.0  0.58463  0.49769  0.55788  1.0000
  H   H47       1.0  0.75452  0.39900  0.60787  1.0000
  H   H48       1.0  0.82948  0.39006  0.64477  1.0000
  H   H49       1.0  0.86539  0.34485  0.64958  1.0000
  H   H50       1.0  0.69693  0.30869  0.55199  1.0000
  H   H51       1.0  0.73920  0.25072  0.55341  1.0000
  H   H52       1.0  0.79746  0.23994  0.58112  1.0000
  H   H53       1.0  0.73973  0.57371  0.40023  1.0000
  H   H54       1.0  0.70394  0.51697  0.39876  1.0000
  H   H55       1.0  0.64307  0.50844  0.42267  1.0000
  H   H56       1.0  0.67303  0.66010  0.46549  1.0000
  H   H57       1.0  0.59546  0.65542  0.49637  1.0000
  H   H58       1.0  0.55762  0.61506  0.49210  1.0000
  H   H59       1.0  0.73042  0.69236  0.45023  1.0000
  H   H60       1.0  0.76681  0.74852  0.45402  1.0000
  H   H61       1.0  0.82630  0.75798  0.42928  1.0000
  H   H62       1.0  0.79892  0.60578  0.38518  1.0000
  H   H63       1.0  0.87529  0.61312  0.35168  1.0000
  H   H64       1.0  0.90711  0.65632  0.35122  1.0000
  H   H65       1.0  0.22653  0.06657  0.09223  1.0000
  H   H66       1.0  0.19243  0.01025  0.08950  1.0000
  H   H67       1.0  0.12727  0.00477  0.07149  1.0000
  H   H68       1.0  0.14160  0.16563  0.05536  1.0000
  H   H69       1.0  0.06603  0.16593  0.02288  1.0000
  H   H70       1.0  0.03795  0.12386  0.01005  1.0000
  H   H71       1.0  0.20252  0.19533  0.06925  1.0000
  H   H72       1.0  0.23638  0.25263  0.07511  1.0000
  H   H73       1.0  0.29780  0.25706  0.09923  1.0000
  H   H74       1.0  0.28640  0.09623  0.10893  1.0000
  H   H75       1.0  0.36408  0.09737  0.14130  1.0000
  H   H76       1.0  0.38947  0.14046  0.15407  1.0000
  H   H77       1.0  0.18252  0.88739  0.98658  1.0000
  H   H78       1.0  0.14289  0.91797  0.03587  1.0000
  H   H79       1.0  0.07734  0.94190  0.03226  1.0000
  H   H80       1.0  0.10930  0.89787  0.88373  1.0000
  H   H81       1.0  0.02280  0.91746  0.87620  1.0000
  H   H82       1.0  0.98195  0.93401  0.91366  1.0000
  H   H83       1.0  0.16651  0.86478  0.86279  1.0000
  H   H84       1.0  0.19911  0.83624  0.81266  1.0000
  H   H85       1.0  0.26046  0.80699  0.81389  1.0000
  H   H86       1.0  0.24348  0.85299  0.96466  1.0000
  H   H87       1.0  0.32347  0.81635  0.97140  1.0000
  H   H88       1.0  0.35314  0.79086  0.93406  1.0000
  H   H89       1.0  0.27656  0.63690  0.49616  1.0000
  H   H90       1.0  0.33416  0.62058  0.54384  1.0000
  H   H91       1.0  0.38651  0.58374  0.53948  1.0000
  H   H92       1.0  0.27990  0.57247  0.40186  1.0000
  H   H93       1.0  0.35359  0.53523  0.38744  1.0000
  H   H94       1.0  0.41242  0.53989  0.41551  1.0000
  H   H95       1.0  0.22637  0.60802  0.37813  1.0000
  H   H96       1.0  0.17423  0.62394  0.32859  1.0000
  H   H97       1.0  0.12755  0.66451  0.32867  1.0000
  H   H98       1.0  0.21407  0.66915  0.47490  1.0000
  H   H99       1.0  0.15171  0.71933  0.48034  1.0000
  H   H100      1.0  0.10883  0.73485  0.44283  1.0000
  H   H101      1.0  0.19959  0.41830  0.58709  1.0000
  H   H102      1.0  0.23359  0.47498  0.58746  1.0000
  H   H103      1.0  0.29875  0.48202  0.56905  1.0000
  H   H104      1.0  0.28403  0.32348  0.54380  1.0000
  H   H105      1.0  0.36374  0.32782  0.51394  1.0000
  H   H106      1.0  0.39428  0.37144  0.50913  1.0000
  H   H107      1.0  0.22242  0.29214  0.55746  1.0000
  H   H108      1.0  0.18604  0.23479  0.56091  1.0000
  H   H109      1.0  0.12479  0.22892  0.58546  1.0000
  H   H110      1.0  0.13873  0.38809  0.59922  1.0000
  H   H111      1.0  0.06285  0.38551  0.63225  1.0000
  H   H112      1.0  0.03668  0.34206  0.64488  1.0000
  H   H113      1.0  0.93597  0.85277  0.44878  1.0000
  H   H114      1.0  0.92669  0.90891  0.48289  1.0000
  H   H115      1.0  0.07730  0.93745  0.44335  1.0000
  H   H116      1.0  0.08284  0.88412  0.40646  1.0000
  H   H117      1.0  0.96814  0.99473  0.56883  1.0000
  H   H118      1.0  0.02340  0.99130  0.44346  1.0000
  H   H119      1.0  0.02705  0.03463  0.59384  1.0000
  H   H120      1.0  0.02264  0.09202  0.62516  1.0000
  H   H121      1.0  0.95691  0.14854  0.53203  1.0000
  H   H122      1.0  0.95779  0.09084  0.50148  1.0000
  H   H123      1.0  0.01659  0.06871  0.45386  1.0000
  H   H124      1.0  0.06199  0.07225  0.49039  1.0000
  H   H125      1.0  0.13946  0.05156  0.41070  1.0000
  H   H126      1.0  0.11982  0.08837  0.43918  1.0000
  H   H127      1.0  0.07484  0.07273  0.40614  1.0000
  H   H128      1.0  0.93254  0.92547  0.54949  1.0000
  H   H129      1.0  0.99281  0.90076  0.53543  1.0000
  H   H130      1.0  0.99623  0.90723  0.63243  1.0000
  H   H131      1.0  0.98879  0.87501  0.59833  1.0000
  H   H132      1.0  0.93542  0.90885  0.60950  1.0000
  H   H133      1.0  0.50298  0.62022  0.91312  1.0000
  H   H134      1.0  0.51378  0.56942  0.95667  1.0000
  H   H135      1.0  0.34886  0.58284  0.98063  1.0000
  H   H136      1.0  0.33752  0.63111  0.93495  1.0000
  H   H137      1.0  0.50135  0.48638  0.05726  1.0000
  H   H138      1.0  0.37130  0.51833  0.96308  1.0000
  H   H139      1.0  0.44902  0.45729  0.10127  1.0000
  H   H140      1.0  0.44743  0.39954  0.13442  1.0000
  H   H141      1.0  0.42144  0.34370  0.03763  1.0000
  H   H142      1.0  0.42766  0.40126  0.00364  1.0000
  H   H143      1.0  0.35595  0.43986  0.97711  1.0000
  H   H144      1.0  0.33832  0.44222  0.02385  1.0000
  H   H145      1.0  0.22638  0.48279  0.97470  1.0000
  H   H146      1.0  0.24923  0.44258  0.99953  1.0000
  H   H147      1.0  0.27099  0.45033  0.95379  1.0000
  H   H148      1.0  0.54864  0.54562  0.02127  1.0000
  H   H149      1.0  0.49854  0.58307  0.02408  1.0000
  H   H150      1.0  0.55530  0.56921  0.11220  1.0000
  H   H151      1.0  0.55125  0.60064  0.07502  1.0000
  H   H152      1.0  0.59247  0.55771  0.07343  1.0000
  H   H153      1.0  0.93324  0.85297  0.12675  1.0000
  H   H154      1.0  0.90965  0.85607  0.06892  1.0000
  H   H155      1.0  0.91788  0.89569  0.04031  1.0000
  H   H156      1.0  0.99713  0.94101  0.18104  1.0000
  H   H157      1.0  0.00969  0.99647  0.15358  1.0000
  H   H158      1.0  0.98988  0.00739  0.10780  1.0000
  H   H159      1.0  0.00791  0.90782  0.22565  1.0000
  H   H160      1.0  0.02852  0.90123  0.28659  1.0000
  H   H161      1.0  0.01499  0.85947  0.31195  1.0000
  H   H162      1.0  0.94925  0.81860  0.16873  1.0000
  H   H163      1.0  0.92885  0.76412  0.19801  1.0000
  H   H164      1.0  0.93881  0.75798  0.24640  1.0000
  H   H165      1.0  0.97416  0.04827  0.81332  1.0000
  H   H166      1.0  0.00168  0.99129  0.84071  1.0000
  H   H167      1.0  0.00721  0.98900  0.88970  1.0000
  H   H168      1.0  0.92226  0.14062  0.87665  1.0000
  H   H169      1.0  0.89625  0.13223  0.93528  1.0000
  H   H170      1.0  0.90027  0.08486  0.95421  1.0000
  H   H171      1.0  0.92303  0.17422  0.83350  1.0000
  H   H172      1.0  0.89833  0.23135  0.80747  1.0000
  H   H173      1.0  0.90486  0.23918  0.75910  1.0000
  H   H174      1.0  0.98839  0.08408  0.77208  1.0000
  H   H175      1.0  0.00214  0.09009  0.71111  1.0000
  H   H176      1.0  0.98442  0.13289  0.68662  1.0000
  H   H177      1.0  0.50647  0.34217  0.38589  1.0000
  H   H178      1.0  0.54051  0.35208  0.44220  1.0000
  H   H179      1.0  0.54129  0.39968  0.45771  1.0000
  H   H180      1.0  0.45399  0.43368  0.31787  1.0000
  H   H181      1.0  0.43075  0.49081  0.34060  1.0000
  H   H182      1.0  0.43518  0.49552  0.38884  1.0000
  H   H183      1.0  0.43462  0.39856  0.27940  1.0000
  H   H184      1.0  0.41939  0.39287  0.21826  1.0000
  H   H185      1.0  0.43880  0.35022  0.19569  1.0000
  H   H186      1.0  0.50703  0.30914  0.34297  1.0000
  H   H187      1.0  0.53223  0.25247  0.31824  1.0000
  H   H188      1.0  0.52428  0.24533  0.27024  1.0000
  H   H189      1.0  0.43287  0.55625  0.67910  1.0000
  H   H190      1.0  0.42146  0.49919  0.65678  1.0000
  H   H191      1.0  0.43871  0.48723  0.61120  1.0000
  H   H192      1.0  0.48960  0.64333  0.61501  1.0000
  H   H193      1.0  0.51176  0.63793  0.55714  1.0000
  H   H194      1.0  0.50316  0.59693  0.53268  1.0000
  H   H195      1.0  0.47784  0.67876  0.65513  1.0000
  H   H196      1.0  0.49638  0.73495  0.67856  1.0000
  H   H197      1.0  0.48726  0.74353  0.72631  1.0000
  H   H198      1.0  0.42321  0.59149  0.72109  1.0000
  H   H199      1.0  0.40468  0.59979  0.78149  1.0000
  H   H200      1.0  0.41688  0.64245  0.80312  1.0000
  C   C1        1.0  0.95614  0.03050  0.93546  1.0000
  C   C2        1.0  0.06590  0.05569  0.03480  1.0000
  C   C3        1.0  0.89727  0.04361  0.03519  1.0000
  C   C4        1.0  0.95635  0.95917  0.06079  1.0000
  C   C5        1.0  0.84190  0.93671  0.96124  1.0000
  C   C6        1.0  0.01240  0.94229  0.97975  1.0000
  C   C7        1.0  0.47766  0.45476  0.43887  1.0000
  C   C8        1.0  0.58495  0.55386  0.46015  1.0000
  C   C9        1.0  0.41562  0.54938  0.48208  1.0000
  C   C10       1.0  0.46946  0.53312  0.55910  1.0000
  C   C11       1.0  0.36053  0.43473  0.53485  1.0000
  C   C12       1.0  0.52825  0.44516  0.53412  1.0000
  C   C13       1.0  0.02628  0.82594  0.41912  1.0000
  C   C14       1.0  0.02154  0.78166  0.37993  1.0000
  C   C15       1.0  0.95678  0.73705  0.39363  1.0000
  C   C16       1.0  0.87319  0.71675  0.38238  1.0000
  C   C17       1.0  0.94950  0.81218  0.28982  1.0000
  C   C18       1.0  0.96074  0.76946  0.33455  1.0000
  C   C19       1.0  0.02969  0.72180  0.35293  1.0000
  C   C20       1.0  0.11393  0.71074  0.37820  1.0000
  C   C21       1.0  0.99192  0.75190  0.36514  1.0000
  C   C22       1.0  0.01488  0.15764  0.58971  1.0000
  C   C23       1.0  0.99692  0.20925  0.61780  1.0000
  C   C24       1.0  0.92325  0.25627  0.60541  1.0000
  C   C25       1.0  0.84098  0.28427  0.62225  1.0000
  C   C26       1.0  0.91863  0.18692  0.71268  1.0000
  C   C27       1.0  0.92661  0.21880  0.66061  1.0000
  C   C28       1.0  0.99096  0.26601  0.64888  1.0000
  C   C29       1.0  0.07812  0.27651  0.62972  1.0000
  C   C30       1.0  0.95873  0.23768  0.63331  1.0000
  C   C31       1.0  0.41921  0.33655  0.11077  1.0000
  C   C32       1.0  0.43404  0.27649  0.12697  1.0000
  C   C33       1.0  0.50446  0.22830  0.11854  1.0000
  C   C34       1.0  0.58986  0.20236  0.13044  1.0000
  C   C35       1.0  0.50491  0.29804  0.22212  1.0000
  C   C36       1.0  0.49668  0.26032  0.17541  1.0000
  C   C37       1.0  0.43176  0.21747  0.15886  1.0000
  C   C38       1.0  0.34603  0.20665  0.14066  1.0000
  C   C39       1.0  0.46681  0.24559  0.14514  1.0000
  C   C40       1.0  0.41118  0.65265  0.88859  1.0000
  C   C41       1.0  0.41288  0.71286  0.87636  1.0000
  C   C42       1.0  0.47372  0.76087  0.88168  1.0000
  C   C43       1.0  0.55686  0.78169  0.86923  1.0000
  C   C44       1.0  0.47918  0.69246  0.77579  1.0000
  C   C45       1.0  0.46896  0.72680  0.82579  1.0000
  C   C46       1.0  0.39669  0.77202  0.84343  1.0000
  C   C47       1.0  0.31373  0.78570  0.86985  1.0000
  C   C48       1.0  0.43778  0.74340  0.85643  1.0000
  C   C49       1.0  0.76785  0.92778  0.91786  1.0000
  C   C50       1.0  0.72753  0.90697  0.90558  1.0000
  C   C51       1.0  0.77807  0.95971  0.89864  1.0000
  C   C52       1.0  0.78465  0.88310  0.96614  1.0000
  C   C53       1.0  0.74358  0.86350  0.95360  1.0000
  C   C54       1.0  0.81092  0.86942  0.99679  1.0000
  C   C55       1.0  0.61821  0.79802  0.91637  1.0000
  C   C56       1.0  0.65639  0.82009  0.92858  1.0000
  C   C57       1.0  0.60795  0.76648  0.93644  1.0000
  C   C58       1.0  0.60128  0.84067  0.86633  1.0000
  C   C59       1.0  0.64071  0.86195  0.87885  1.0000
  C   C60       1.0  0.57339  0.85238  0.83558  1.0000
  C   C61       1.0  0.79758  0.91582  0.94836  1.0000
  C   C62       1.0  0.71394  0.87453  0.92312  1.0000
  C   C63       1.0  0.59109  0.80788  0.88461  1.0000
  C   C64       1.0  0.66995  0.85208  0.90995  1.0000
  C   C65       1.0  0.81472  0.04709  0.07453  1.0000
  C   C66       1.0  0.77003  0.06770  0.08726  1.0000
  C   C67       1.0  0.82939  0.01329  0.09110  1.0000
  C   C68       1.0  0.82428  0.09442  0.02934  1.0000
  C   C69       1.0  0.77525  0.11035  0.03851  1.0000
  C   C70       1.0  0.85330  0.11407  0.00540  1.0000
  C   C71       1.0  0.65215  0.18437  0.08257  1.0000
  C   C72       1.0  0.69123  0.16010  0.06889  1.0000
  C   C73       1.0  0.63954  0.21766  0.06406  1.0000
  C   C74       1.0  0.63963  0.14076  0.13135  1.0000
  C   C75       1.0  0.67932  0.11682  0.11695  1.0000
  C   C76       1.0  0.61421  0.13024  0.16266  1.0000
  C   C77       1.0  0.84445  0.06130  0.04609  1.0000
  C   C78       1.0  0.75006  0.10045  0.07013  1.0000
  C   C79       1.0  0.62656  0.17489  0.11430  1.0000
  C   C80       1.0  0.70581  0.12561  0.08535  1.0000
  C   C81       1.0  0.58861  0.38809  0.53252  1.0000
  C   C82       1.0  0.63730  0.36952  0.53912  1.0000
  C   C83       1.0  0.55010  0.36781  0.51817  1.0000
  C   C84       1.0  0.62045  0.44202  0.55910  1.0000
  C   C85       1.0  0.66548  0.42043  0.57069  1.0000
  C   C86       1.0  0.61668  0.47920  0.56697  1.0000
  C   C87       1.0  0.79731  0.34734  0.61456  1.0000
  C   C88       1.0  0.75670  0.37093  0.59997  1.0000
  C   C89       1.0  0.83290  0.36152  0.63777  1.0000
  C   C90       1.0  0.76443  0.29681  0.58247  1.0000
  C   C91       1.0  0.72443  0.32079  0.56860  1.0000
  C   C92       1.0  0.76718  0.26018  0.57198  1.0000
  C   C93       1.0  0.57994  0.42534  0.54140  1.0000
  C   C94       1.0  0.67431  0.38339  0.56163  1.0000
  C   C95       1.0  0.80080  0.31001  0.60597  1.0000
  C   C96       1.0  0.71946  0.35847  0.57640  1.0000
  C   C97       1.0  0.66999  0.56311  0.42805  1.0000
  C   C98       1.0  0.71044  0.58532  0.41798  1.0000
  C   C99       1.0  0.67209  0.52735  0.41563  1.0000
  C   C100      1.0  0.63078  0.61287  0.46302  1.0000
  C   C101      1.0  0.67301  0.63365  0.45388  1.0000
  C   C102      1.0  0.59223  0.62856  0.48544  1.0000
  C   C103      1.0  0.79772  0.70385  0.42117  1.0000
  C   C104      1.0  0.75897  0.68095  0.43190  1.0000
  C   C105      1.0  0.79691  0.73900  0.43544  1.0000
  C   C106      1.0  0.83712  0.65500  0.38472  1.0000
  C   C107      1.0  0.79746  0.63273  0.39584  1.0000
  C   C108      1.0  0.87551  0.64080  0.36106  1.0000
  C   C109      1.0  0.62856  0.57710  0.45002  1.0000
  C   C110      1.0  0.71320  0.62108  0.43054  1.0000
  C   C111      1.0  0.83656  0.69110  0.39686  1.0000
  C   C112      1.0  0.75704  0.64506  0.41937  1.0000
  C   C113      1.0  0.15329  0.06024  0.06741  1.0000
  C   C114      1.0  0.19382  0.08119  0.07904  1.0000
  C   C115      1.0  0.15789  0.02271  0.07599  1.0000
  C   C116      1.0  0.10690  0.11631  0.04448  1.0000
  C   C117      1.0  0.14663  0.13636  0.05850  1.0000
  C   C118      1.0  0.06719  0.13629  0.02515  1.0000
  C   C119      1.0  0.27114  0.20176  0.09870  1.0000
  C   C120      1.0  0.23325  0.18064  0.08428  1.0000
  C   C121      1.0  0.26796  0.23958  0.09111  1.0000
  C   C122      1.0  0.31788  0.14590  0.12190  1.0000
  C   C123      1.0  0.28011  0.12546  0.10628  1.0000
  C   C124      1.0  0.35971  0.12699  0.14024  1.0000
  C   C125      1.0  0.10912  0.07745  0.04896  1.0000
  C   C126      1.0  0.19179  0.11961  0.07506  1.0000
  C   C127      1.0  0.31208  0.18450  0.11956  1.0000
  C   C128      1.0  0.23540  0.14210  0.08872  1.0000
  C   C129      1.0  0.10636  0.91553  0.98416  1.0000
  C   C130      1.0  0.15016  0.89556  0.96922  1.0000
  C   C131      1.0  0.10860  0.92547  0.01971  1.0000
  C   C132      1.0  0.06291  0.91633  0.92683  1.0000
  C   C133      1.0  0.10913  0.90027  0.91208  1.0000
  C   C134      1.0  0.01948  0.92256  0.90449  1.0000
  C   C135      1.0  0.23545  0.83032  0.86481  1.0000
  C   C136      1.0  0.19705  0.85399  0.88034  1.0000
  C   C137      1.0  0.23151  0.82379  0.82829  1.0000
  C   C138      1.0  0.28016  0.82356  0.92191  1.0000
  C   C139      1.0  0.24046  0.84740  0.93683  1.0000
  C   C140      1.0  0.32141  0.80919  0.94368  1.0000
  C   C141      1.0  0.06109  0.92491  0.96325  1.0000
  C   C142      1.0  0.15230  0.88684  0.93284  1.0000
  C   C143      1.0  0.27691  0.81408  0.88570  1.0000
  C   C144      1.0  0.19752  0.86292  0.91655  1.0000
  C   C145      1.0  0.33773  0.59459  0.49272  1.0000
  C   C146      1.0  0.29336  0.61569  0.47950  1.0000
  C   C147      1.0  0.35440  0.60025  0.52735  1.0000
  C   C148      1.0  0.34254  0.56227  0.43753  1.0000
  C   C149      1.0  0.29503  0.58014  0.42693  1.0000
  C   C150      1.0  0.37064  0.54243  0.41245  1.0000
  C   C151      1.0  0.17239  0.65390  0.37779  1.0000
  C   C152      1.0  0.21046  0.62990  0.39418  1.0000
  C   C153      1.0  0.15722  0.64726  0.34283  1.0000
  C   C154      1.0  0.16464  0.68844  0.43229  1.0000
  C   C155      1.0  0.20346  0.66419  0.44795  1.0000
  C   C156      1.0  0.14054  0.71626  0.45287  1.0000
  C   C157      1.0  0.36431  0.56841  0.47093  1.0000
  C   C158      1.0  0.27165  0.60957  0.44585  1.0000
  C   C159      1.0  0.15035  0.68394  0.39660  1.0000
  C   C160      1.0  0.22767  0.63455  0.42939  1.0000
  C   C161      1.0  0.27278  0.42697  0.56378  1.0000
  C   C162      1.0  0.23215  0.40493  0.57337  1.0000
  C   C163      1.0  0.26816  0.46369  0.57367  1.0000
  C   C164      1.0  0.32026  0.37372  0.53844  1.0000
  C   C165      1.0  0.27940  0.35220  0.54933  1.0000
  C   C166      1.0  0.36235  0.35673  0.51965  1.0000
  C   C167      1.0  0.15298  0.28366  0.58673  1.0000
  C   C168      1.0  0.19154  0.30559  0.57287  1.0000
  C   C169      1.0  0.15511  0.24665  0.57778  1.0000
  C   C170      1.0  0.10729  0.33793  0.61151  1.0000
  C   C171      1.0  0.14509  0.35914  0.59612  1.0000
  C   C172      1.0  0.06633  0.35598  0.63066  1.0000
  C   C173      1.0  0.31732  0.41163  0.54569  1.0000
  C   C174      1.0  0.23398  0.36715  0.56655  1.0000
  C   C175      1.0  0.11237  0.29957  0.60836  1.0000
  C   C176      1.0  0.18987  0.34366  0.57850  1.0000
  C   C177      1.0  0.01182  0.86372  0.42725  1.0000
  C   C178      1.0  0.96604  0.87196  0.44680  1.0000
  C   C179      1.0  0.96127  0.90338  0.46679  1.0000
  C   C180      1.0  0.00247  0.92638  0.46715  1.0000
  C   C181      1.0  0.04550  0.91966  0.44436  1.0000
  C   C182      1.0  0.04916  0.88912  0.42359  1.0000
  C   C183      1.0  0.99993  0.95930  0.48871  1.0000
  C   C184      1.0  0.98693  0.95964  0.52535  1.0000
  C   C185      1.0  0.98337  0.99323  0.54199  1.0000
  C   C186      1.0  0.00021  0.02479  0.52514  1.0000
  C   C187      1.0  0.02001  0.02300  0.49007  1.0000
  C   C188      1.0  0.01428  0.99132  0.47156  1.0000
  C   C189      1.0  0.99468  0.05887  0.54478  1.0000
  C   C190      1.0  0.01015  0.05915  0.58046  1.0000
  C   C191      1.0  0.00725  0.09183  0.59843  1.0000
  C   C192      1.0  0.99092  0.12451  0.58039  1.0000
  C   C193      1.0  0.96948  0.12355  0.54639  1.0000
  C   C194      1.0  0.97157  0.09080  0.52855  1.0000
  C   C195      1.0  0.04655  0.05357  0.47101  1.0000
  C   C196      1.0  0.10593  0.06435  0.42578  1.0000
  C   C197      1.0  0.97584  0.92609  0.54773  1.0000
  C   C198      1.0  0.97836  0.90359  0.60611  1.0000
  C   C199      1.0  0.41921  0.62875  0.92034  1.0000
  C   C200      1.0  0.46932  0.61252  0.92821  1.0000
  C   C201      1.0  0.47559  0.58379  0.95330  1.0000
  C   C202      1.0  0.43206  0.57216  0.97193  1.0000
  C   C203      1.0  0.38294  0.59105  0.96633  1.0000
  C   C204      1.0  0.37635  0.61861  0.94029  1.0000
  C   C205      1.0  0.43501  0.53725  0.99289  1.0000
  C   C206      1.0  0.47119  0.52863  0.02071  1.0000
  C   C207      1.0  0.47160  0.49405  0.03756  1.0000
  C   C208      1.0  0.43356  0.46963  0.03030  1.0000
  C   C209      1.0  0.39390  0.48015  0.00523  1.0000
  C   C210      1.0  0.39829  0.51220  0.98487  1.0000
  C   C211      1.0  0.43596  0.43401  0.04997  1.0000
  C   C212      1.0  0.44374  0.43272  0.08687  1.0000
  C   C213      1.0  0.44243  0.39992  0.10588  1.0000
  C   C214      1.0  0.43199  0.36803  0.08869  1.0000
  C   C215      1.0  0.42828  0.36827  0.05158  1.0000
  C   C216      1.0  0.43101  0.40124  0.03222  1.0000
  C   C217      1.0  0.34664  0.45845  0.99947  1.0000
  C   C218      1.0  0.26083  0.46319  0.97950  1.0000
  C   C219      1.0  0.51007  0.55461  0.03308  1.0000
  C   C220      1.0  0.55487  0.57118  0.08279  1.0000
  C   C221      1.0  0.94172  0.90096  0.09599  1.0000
  C   C222      1.0  0.94673  0.87991  0.12752  1.0000
  C   C223      1.0  0.92168  0.88378  0.06658  1.0000
  C   C224      1.0  0.97842  0.95120  0.12658  1.0000
  C   C225      1.0  0.98276  0.92892  0.15760  1.0000
  C   C226      1.0  0.99372  0.98708  0.12904  1.0000
  C   C227      1.0  0.99225  0.86052  0.25597  1.0000
  C   C228      1.0  0.99294  0.88128  0.22422  1.0000
  C   C229      1.0  0.01249  0.87470  0.28691  1.0000
  C   C230      1.0  0.95658  0.81111  0.22408  1.0000
  C   C231      1.0  0.95946  0.83185  0.19254  1.0000
  C   C232      1.0  0.93993  0.77560  0.22290  1.0000
  C   C233      1.0  0.95827  0.93718  0.09481  1.0000
  C   C234      1.0  0.96836  0.89261  0.15867  1.0000
  C   C235      1.0  0.96985  0.82652  0.25626  1.0000
  C   C236      1.0  0.97376  0.86841  0.19210  1.0000
  C   C237      1.0  0.96965  0.03873  0.86898  1.0000
  C   C238      1.0  0.96508  0.06110  0.83820  1.0000
  C   C239      1.0  0.99270  0.00340  0.86621  1.0000
  C   C240      1.0  0.93427  0.08977  0.90321  1.0000
  C   C241      1.0  0.93591  0.11258  0.87322  1.0000
  C   C242      1.0  0.91014  0.10369  0.93342  1.0000
  C   C243      1.0  0.92782  0.18370  0.77835  1.0000
  C   C244      1.0  0.93380  0.16147  0.80896  1.0000
  C   C245      1.0  0.90868  0.22030  0.78170  1.0000
  C   C246      1.0  0.96562  0.13310  0.74347  1.0000
  C   C247      1.0  0.97036  0.11133  0.77454  1.0000
  C   C248      1.0  0.98453  0.11790  0.71166  1.0000
  C   C249      1.0  0.95377  0.05301  0.90204  1.0000
  C   C250      1.0  0.95148  0.09908  0.83992  1.0000
  C   C251      1.0  0.94072  0.16879  0.74508  1.0000
  C   C252      1.0  0.95177  0.12416  0.80750  1.0000
  C   C253      1.0  0.49961  0.39415  0.40934  1.0000
  C   C254      1.0  0.49431  0.37051  0.38103  1.0000
  C   C255      1.0  0.52737  0.38080  0.43907  1.0000
  C   C256      1.0  0.46370  0.44441  0.37229  1.0000
  C   C257      1.0  0.46467  0.42131  0.34329  1.0000
  C   C258      1.0  0.44321  0.47982  0.36650  1.0000
  C   C259      1.0  0.45811  0.35028  0.25227  1.0000
  C   C260      1.0  0.45383  0.37158  0.28266  1.0000
  C   C261      1.0  0.43800  0.36535  0.22001  1.0000
  C   C262      1.0  0.49928  0.29989  0.28817  1.0000
  C   C263      1.0  0.49407  0.32167  0.31814  1.0000
  C   C264      1.0  0.52037  0.26368  0.29231  1.0000
  C   C265      1.0  0.48079  0.43120  0.40637  1.0000
  C   C266      1.0  0.47697  0.38350  0.34718  1.0000
  C   C267      1.0  0.48396  0.31493  0.25468  1.0000
  C   C268      1.0  0.47461  0.35864  0.31580  1.0000
  C   C269      1.0  0.44894  0.54413  0.62490  1.0000
  C   C270      1.0  0.44544  0.56764  0.65416  1.0000
  C   C271      1.0  0.43534  0.50809  0.63092  1.0000
  C   C272      1.0  0.48208  0.59369  0.58897  1.0000
  C   C273      1.0  0.47765  0.61607  0.61869  1.0000
  C   C274      1.0  0.50033  0.61000  0.55769  1.0000
  C   C275      1.0  0.47091  0.68889  0.70986  1.0000
  C   C276      1.0  0.46822  0.66654  0.68031  1.0000
  C   C277      1.0  0.48622  0.72460  0.70473  1.0000
  C   C278      1.0  0.43804  0.64040  0.74701  1.0000
  C   C279      1.0  0.43718  0.61822  0.71708  1.0000
  C   C280      1.0  0.41952  0.62667  0.77937  1.0000
  C   C281      1.0  0.46708  0.55699  0.59127  1.0000
  C   C282      1.0  0.45864  0.60430  0.65172  1.0000
  C   C283      1.0  0.45864  0.67512  0.74396  1.0000
  C   C284      1.0  0.45461  0.62986  0.68332  1.0000
  O   O1        1.0  0.07148  0.02265  0.02247  1.0000
  O   O2        1.0  0.01677  0.06672  0.03407  1.0000
  O   O3        1.0  0.90461  0.01490  0.01546  1.0000
  O   O4        1.0  0.94005  0.05833  0.03977  1.0000
  O   O5        1.0  0.98458  0.04087  0.96215  1.0000
  O   O6        1.0  0.92563  0.00323  0.93958  1.0000
  O   O7        1.0  0.83782  0.97084  0.97035  1.0000
  O   O8        1.0  0.88980  0.92335  0.96521  1.0000
  O   O9        1.0  0.99981  0.97767  0.97723  1.0000
  O   O10       1.0  0.97059  0.92457  0.98348  1.0000
  O   O11       1.0  0.91681  0.95764  0.03864  1.0000
  O   O12       1.0  0.99473  0.97961  0.05250  1.0000
  O   O13       1.0  0.59029  0.52554  0.48176  1.0000
  O   O14       1.0  0.53644  0.55989  0.45052  1.0000
  O   O15       1.0  0.42711  0.51401  0.47887  1.0000
  O   O16       1.0  0.45798  0.56680  0.48114  1.0000
  O   O17       1.0  0.50580  0.48353  0.44076  1.0000
  O   O18       1.0  0.44775  0.44562  0.46600  1.0000
  O   O19       1.0  0.35525  0.46443  0.51496  1.0000
  O   O20       1.0  0.40891  0.42742  0.54344  1.0000
  O   O21       1.0  0.52017  0.47456  0.51403  1.0000
  O   O22       1.0  0.48435  0.43341  0.54472  1.0000
  O   O23       1.0  0.43172  0.51160  0.55276  1.0000
  O   O24       1.0  0.50806  0.53513  0.53596  1.0000
  O   O25       1.0  0.06435  0.81023  0.43397  1.0000
  O   O26       1.0  0.99281  0.80768  0.39897  1.0000
  O   O27       1.0  0.92547  0.71010  0.38674  1.0000
  O   O28       1.0  0.85523  0.74437  0.36673  1.0000
  O   O29       1.0  0.90411  0.82140  0.29759  1.0000
  O   O30       1.0  0.98401  0.79609  0.31463  1.0000
  O   O31       1.0  0.06260  0.70479  0.37705  1.0000
  O   O32       1.0  0.13084  0.73720  0.36295  1.0000
  O   O33       1.0  0.06243  0.15548  0.59366  1.0000
  O   O34       1.0  0.98777  0.19159  0.58677  1.0000
  O   O35       1.0  0.89177  0.28619  0.61315  1.0000
  O   O36       1.0  0.82758  0.26116  0.64357  1.0000
  O   O37       1.0  0.87089  0.18925  0.70945  1.0000
  O   O38       1.0  0.95175  0.19466  0.68474  1.0000
  O   O39       1.0  0.02525  0.28175  0.62674  1.0000
  O   O40       1.0  0.09807  0.25302  0.65006  1.0000
  O   O41       1.0  0.37787  0.33870  0.12729  1.0000
  O   O42       1.0  0.45717  0.30809  0.11677  1.0000
  O   O43       1.0  0.53769  0.19948  0.12842  1.0000
  O   O44       1.0  0.60733  0.22860  0.14422  1.0000
  O   O45       1.0  0.55064  0.30241  0.21474  1.0000
  O   O46       1.0  0.47075  0.28529  0.19753  1.0000
  O   O47       1.0  0.39850  0.20350  0.13595  1.0000
  O   O48       1.0  0.32604  0.22844  0.16166  1.0000
  O   O49       1.0  0.37931  0.64537  0.86626  1.0000
  O   O50       1.0  0.44342  0.68059  0.88268  1.0000
  O   O51       1.0  0.50409  0.78752  0.87038  1.0000
  O   O52       1.0  0.57718  0.75382  0.85655  1.0000
  O   O53       1.0  0.52680  0.69292  0.77804  1.0000
  O   O54       1.0  0.44632  0.70230  0.80413  1.0000
  O   O55       1.0  0.36540  0.79062  0.86694  1.0000
  O   O56       1.0  0.29639  0.75812  0.85855  1.0000
  O   O57       1.0  0.99865  0.92871  0.58172  1.0000
  O   O58       1.0  0.08909  0.03829  0.45067  1.0000
  O   O59       1.0  0.51182  0.55328  0.07064  1.0000
  O   O60       1.0  0.30218  0.48271  0.99193  1.0000
